603

H     0.207312     3.037584    -0.677997
O     0.733526     2.371423    -1.170528
H     1.671614     2.505127    -0.897355
H    -0.045334    -1.294951     3.159412
O     0.343676    -0.593004     2.614913
H    -0.139199     0.217919     2.846299
H    -2.388808     2.404386    -0.532707
O    -2.174839     1.936553     0.291938
H    -2.187241     0.988083     0.068750
H    -4.641969     0.535040     2.189885
O    -4.954663    -0.399671     2.204950
H    -4.448022    -0.876467     1.539269
H     0.088219    -0.299976     0.959081
O    -0.110330    -0.065493     0.031895
H     0.223793     0.832784    -0.090075
H    -0.113086    -3.565258     3.790727
O    -0.394362    -2.734713     4.209494
H     0.250695    -2.560940     4.911256
H    -4.875976     2.515870     1.334539
O    -4.233892     2.111165     1.949752
H    -3.391591     2.096213     1.436186
H    -3.247361     3.884534    -2.210840
O    -2.506315     3.292128    -1.979249
H    -2.147323     3.003953    -2.838590
H    -0.083014    -3.798746     0.518495
O     0.253323    -2.977086     0.932636
H    -0.536633    -2.495087     1.244405
H    -2.347109    -1.538760     2.480145
O    -2.155537    -2.004684     1.640017
H    -2.417552    -1.420651     0.909432
H     2.100799    -1.429403    -1.112836
O     2.335587    -1.679185    -0.195379
H     1.548632    -2.110442     0.189988
H    -1.377050     1.828025     1.915408
O    -1.465558     1.431775     2.792415
H    -1.454647     2.145417     3.455979
H     0.241479    -2.699447    -1.558171
O    -0.515535    -2.089592    -1.614739
H    -0.339656    -1.362653    -0.980859
H    -3.401081    -2.935458    -0.377299
O    -2.682387    -3.424608    -0.798696
H    -1.974386    -2.791854    -1.017260
H     2.795095     0.153997     2.938302
O     2.897590    -0.025864     3.900177
H     2.983193     0.868424     4.302928
H    -3.539273     6.368569    -0.546824
O    -3.304502     7.031169    -1.248309
H    -3.166730     7.877724    -0.779509
H     3.920881     0.611613     1.188409
O     2.971587     0.425118     1.305686
H     2.737289    -0.329571     0.727836
H    -5.764752     0.818000    -1.596410
O    -4.855911     1.150346    -1.471742
H    -4.970654     1.979003    -0.961472
H    -1.215423     5.402069     2.207197
O    -1.836607     4.651600     2.092164
H    -1.912075     4.234035     2.955421
H     3.501435     2.787223     0.424357
O     3.254040     2.741867    -0.514774
H     3.589662     1.899910    -0.863781
H     1.532579    -4.689002    -2.233159
O     1.594465    -3.907145    -1.666267
H     2.386090    -3.444069    -2.019557
H    -0.900991    -0.088329    -2.541543
O    -0.270525     0.567123    -2.867116
H    -0.012921     1.151877    -2.131211
H     1.742699    -4.673547    -0.162442
O     1.860043    -5.308578     0.578819
H     1.400035    -6.125487     0.284046
H    -1.191340    -3.270832    -2.866816
O    -1.013201    -3.952283    -3.528118
H    -0.883660    -4.799807    -3.059343
H    -2.772450     3.310638     4.706127
O    -1.791155     3.313212     4.671698
H    -1.495964     2.914014     5.508336
H     0.961232     5.053504     4.072182
O     0.014130     5.281303     4.124546
H    -0.453945     4.476314     4.383993
H    -1.687359    -4.654324    -0.354371
O    -0.917260    -5.186302    -0.068098
H    -1.257116    -5.879641     0.507524
H    -3.926424     5.814922    -2.600559
O    -4.273394     4.978550    -2.928517
H    -4.118963     4.942523    -3.896726
H    -2.388768    -3.691606     1.950611
O    -2.403472    -4.593945     2.330323
H    -1.462302    -4.829663     2.468031
H    -4.660762    -3.001801    -2.883999
O    -3.807742    -3.230642    -3.291008
H    -3.472167    -4.021983    -2.824606
H     0.356930     1.393889     4.618015
O     0.859732     2.155644     4.282942
H     0.904757     2.816386     4.988364
H    -4.609217    -5.188889    -1.552150
O    -5.312694    -4.837693    -0.978776
H    -5.096895    -5.189621    -0.094135
H     2.379790    -6.479886    -4.011063
O     2.044855    -6.150622    -3.156792
H     2.473438    -6.722029    -2.491037
H     0.502245    -3.378090    -3.992859
O     1.303129    -3.008211    -4.418015
H     0.980170    -2.639844    -5.266567
H     1.994721    -1.730981     2.989392
O     2.157163    -2.660883     2.773434
H     1.471092    -2.881490     2.108375
H    -2.986418    -1.823522    -3.198225
O    -2.568809    -0.934489    -3.135744
H    -3.228150    -0.293143    -3.455750
H    -3.192843     4.968723     1.078617
O    -3.976494     5.337821     0.623959
H    -4.394059     5.894681     1.329447
H     0.887791     2.269227     2.592401
O     0.988596     2.263795     1.621166
H     1.717947     1.643282     1.457607
H     0.183184     5.662971    -0.763025
O     0.701424     6.326537    -1.273262
H     0.839552     7.128051    -0.719052
H     0.331708     7.049228     2.583600
O    -0.029054     6.665644     1.767092
H     0.637836     5.997588     1.506508
H    -2.457567     0.216357     3.348423
O    -2.675318    -0.597428     3.855383
H    -1.913938    -0.632881     4.476108
H    -0.871201     0.567264     6.031119
O    -0.594667     0.048421     5.257218
H     0.121216    -0.551835     5.544410
H     0.756947    -4.982412     1.994791
O     0.216992    -5.092112     2.800693
H     0.363655    -6.015180     3.068743
H    -2.054982    -8.090120     0.470106
O    -1.740161    -7.595360     1.253405
H    -2.529499    -7.292117     1.709071
H    -0.393655     6.864313    -2.331834
O    -1.142499     7.279822    -2.831136
H    -1.931450     7.150413    -2.266710
H    -1.113063     4.311926     0.572652
O    -0.741090     4.373497    -0.323799
H    -1.446897     4.126507    -0.955222
H    -4.399223     2.739084     3.511133
O    -4.397776     2.911331     4.475429
H    -4.476540     2.028551     4.886142
H     2.065330    -3.558812     4.254915
O     2.007457    -4.030135     5.108987
H     2.507976    -3.487357     5.739069
H     4.723485    -3.164478     0.848209
O     4.564429    -3.091065    -0.118730
H     3.702134    -2.619097    -0.203184
H    -2.698624    -0.757704    -1.342424
O    -3.026424    -0.486505    -0.468502
H    -3.830144     0.034020    -0.675908
H    -1.595332    -0.771193    -4.623001
O    -1.089878    -0.553685    -5.427575
H    -0.382959     0.046579    -5.143376
H     1.821159    -1.706226    -3.368960
O     1.911929    -0.956975    -2.748437
H     1.130701    -0.384779    -2.878562
H     3.701165    -3.091780     2.559316
O     4.660858    -3.320425     2.486839
H     4.713545    -4.281188     2.611615
H     3.455128    -6.066571     3.158371
O     3.806750    -5.864223     2.252621
H     3.053607    -5.521772     1.722415
H    -3.333590     1.593757    -4.172253
O    -4.176372     1.119943    -3.980397
H    -4.393670     1.265587    -3.023647
H    -5.081763     4.129855     0.068349
O    -5.516065     3.261462    -0.032845
H    -6.447283     3.375331    -0.314165
H     6.759171    -1.145984    -1.360526
O     5.988220    -0.999439    -0.806180
H     5.571793    -1.868307    -0.607892
H     4.628792    -3.144510    -2.462030
O     3.760718    -2.978041    -2.878556
H     3.765047    -3.598423    -3.633278
H     4.472064    -2.254941     5.628071
O     4.134638    -2.719383     6.424077
H     4.469589    -3.624235     6.343168
H    -0.760129     6.350300     5.069980
O    -1.359038     6.924339     5.607532
H    -1.377286     7.800408     5.164280
H     4.718656    -0.110476    -1.463424
O     3.948980     0.427832    -1.727090
H     3.258603    -0.176395    -2.055320
H    -0.746718     4.518874    -4.039098
O    -1.532004     5.057887    -4.247874
H    -1.384624     5.925980    -3.826910
H     0.662774     3.208632    -2.658609
O     0.667993     3.583747    -3.567869
H     0.717908     2.819282    -4.151846
H    -5.335922    -5.209080     1.814369
O    -4.637062    -5.800508     1.458614
H    -3.797597    -5.381601     1.728382
H     7.906809    -1.653317    -4.031433
O     7.648567    -1.340315    -3.131677
H     7.157484    -0.498737    -3.289084
H     3.740476    -5.055986    -5.278728
O     4.503474    -4.680361    -4.799247
H     4.888378    -5.389763    -4.252291
H    -3.759763     0.016175     4.943594
O    -4.362014     0.478580     5.576168
H    -5.018927    -0.182235     5.869417
H     3.513835    -5.919964    -0.509111
O     4.389273    -5.670808    -0.820205
H     4.456298    -4.706795    -0.682963
H     5.019187    -0.312823    -4.158090
O     4.488158    -1.028157    -4.546429
H     4.164022    -1.611059    -3.827280
H    -1.162546     1.565069    -3.932612
O    -1.815855     2.182346    -4.318890
H    -1.460688     2.513636    -5.166278
H     4.936293    -6.295270    -2.297975
O     5.266334    -6.621490    -3.164861
H     6.100559    -7.078326    -2.996838
H     8.785953    -5.038350    -2.907864
O     8.100427    -5.464460    -2.347382
H     8.141180    -6.419046    -2.468337
H     2.336250     4.738227     0.446649
O     1.758163     4.718999     1.218633
H     1.404995     3.797164     1.298355
H    -4.378688    -2.641258     4.245674
O    -5.274454    -2.305679     4.044124
H    -5.141747    -1.525504     3.466426
H    -5.809059    -3.214380     1.334075
O    -6.269647    -3.771423     2.003883
H    -6.081727    -3.334046     2.853473
H     1.695637     3.496560     6.860574
O     1.069910     4.008167     6.326231
H     0.286528     4.158459     6.898062
H     5.033488    -2.132407     3.621944
O     5.053095    -1.412345     4.283896
H     4.237996    -0.859851     4.127839
H     2.444030    -5.553731     4.847498
O     2.829714    -6.435281     4.589753
H     2.085598    -7.018564     4.414141
H     2.293338    -4.512333    -6.777406
O     2.130346    -4.999282    -5.959731
H     1.859774    -4.308353    -5.306154
H     6.478887    -4.067188    -0.492397
O     7.231340    -4.472238    -0.028797
H     7.743590    -4.886398    -0.751449
H    -1.720222     4.503010     7.699843
O    -0.821485     4.606486     8.084269
H    -0.645427     5.566580     8.106549
H    -5.130141     5.664702    -5.597418
O    -4.518705     4.904264    -5.616663
H    -3.763058     5.121193    -6.183789
H     3.306600    -2.521623    -8.429184
O     3.222706    -3.053193    -7.626770
H     4.099399    -3.023649    -7.198854
H    -0.684393     8.825864    -2.289077
O    -0.564795     9.656158    -1.772277
H     0.198662     9.486564    -1.195674
H     2.095482    -0.885514     5.217577
O     1.526803    -1.413600     5.806927
H     1.618616    -1.065135     6.703120
H     5.231151    -2.003719    -5.687718
O     5.581844    -2.769301    -6.207901
H     5.310484    -3.559623    -5.689729
H     5.740545    -5.173027     4.697106
O     5.223302    -5.091675     5.526022
H     4.499864    -5.721971     5.441327
H    -3.953678     1.147487     7.014004
O    -3.763131     1.626173     7.856684
H    -4.640956     2.007825     8.117468
H    -1.878196     9.611098    -0.757227
O    -2.737487     9.481585    -0.281574
H    -3.352245     10.105911    -0.670507
H    -5.953229     4.661686    -2.937108
O    -6.861499     4.537723    -3.280578
H    -6.768139     3.834114    -3.956053
H     0.148414    -7.058359    -1.123850
O     0.622685    -7.484295    -0.380943
H    -0.048274    -7.690854     0.272069
H    -7.637156     3.757064    -1.969117
O    -7.895042     3.170550    -1.227511
H    -7.747841     2.261736    -1.565120
H     4.003691    -0.852935     6.990778
O     4.008127     0.111214     6.980189
H     4.818336     0.404226     6.546825
H     2.249371     5.811386    -1.186898
O     3.186600     5.523691    -1.073168
H     3.364882     4.982704    -1.865403
H     6.666226    -5.794046     0.721368
O     6.302714    -6.582509     1.198077
H     5.392507    -6.311326     1.425403
H    -3.864878     4.732841     7.780596
O    -3.296309     4.271549     7.122241
H    -3.485226     3.327398     7.234527
H     5.924082    -7.792372     0.037932
O     5.691378    -8.562110    -0.540506
H     4.829314    -8.319332    -0.940919
H    -0.540987     2.061146     7.695809
O    -1.174486     1.992325     6.961426
H    -2.041961     1.847013     7.358897
H    -6.360984    -0.143431     1.073904
O    -6.682061    -0.229023     0.161494
H    -7.599041    -0.505604     0.180986
H    -5.336935    -3.084664    -0.571059
O    -5.088355    -2.379034     0.052517
H    -5.662360    -1.609786    -0.137046
H     4.310644     5.605945     0.311367
O     4.645167     5.710048     1.215980
H     3.948562     6.217708     1.668017
H    -9.017272    -1.786224    -2.236017
O    -8.469945    -1.580129    -1.450840
H    -8.592590    -2.316404    -0.811663
H    -5.525892     3.439933    -5.523960
O    -6.039501     2.727838    -5.107151
H    -5.369778     2.146295    -4.692768
H     3.199730    -0.878107    -5.650304
O     2.344232    -1.002874    -6.115426
H     2.432507    -1.852878    -6.586461
H     8.135917    -1.316239    -6.027268
O     8.148573    -2.179349    -5.569058
H     7.293731    -2.583282    -5.818579
H     7.630063     1.021361    -6.312941
O     7.445292     0.170846    -6.723531
H     6.464088     0.116195    -6.759510
H    -7.822023    -3.721162     0.949894
O    -8.501706    -3.619099     0.265978
H    -8.399929    -4.379303    -0.334253
H    -2.428704     8.734766     1.283474
O    -2.274144     8.148685     2.037667
H    -1.501648     7.598746     1.815134
H    -4.452122     6.428307     3.493790
O    -4.625212     6.851787     2.636615
H    -3.864769     7.441104     2.495078
H     3.400865     3.462181    -3.581353
O     3.243054     4.430886    -3.489802
H     2.277691     4.490497    -3.596576
H    -6.090965    -1.635116    -3.427606
O    -6.170360    -2.212826    -2.642221
H    -6.955438    -1.908591    -2.133624
H     6.486841     1.097631     4.737396
O     6.091435     1.635374     5.440219
H     6.273427     2.554658     5.146949
H     1.368054     1.723601    -5.821384
O     1.177655     1.128716    -5.065384
H     1.544116     0.266478    -5.333769
H    -2.474753     2.979968     10.486127
O    -2.258198     2.072871     10.214596
H    -2.855524     1.868659     9.483131
H     7.652817    -0.448394     3.084221
O     6.899907     0.123605     3.251930
H     6.210303    -0.478766     3.633336
H    -5.601190    -8.075391    -0.673305
O    -4.866477    -8.139758    -0.026675
H    -4.872504    -7.321147     0.493013
H    -5.161099    -0.146269    -4.704437
O    -5.774842    -0.861456    -4.942494
H    -6.615422    -0.424447    -5.140454
H     1.903554    -0.198059    -7.510347
O     1.699445     0.271259    -8.355053
H     2.276967    -0.133149    -9.007878
H     4.890091    -1.382395    -9.299851
O     3.963675    -1.158467    -9.581525
H     3.942818    -1.278594    -10.530266
H     7.598958    -2.518823     4.204832
O     7.748009    -2.558376     3.245721
H     7.253681    -3.348399     2.974762
H     6.775704    -5.853505     2.692377
O     6.830480    -5.179236     3.391475
H     7.707559    -5.251472     3.810899
H    -1.841319     8.953173     3.486432
O    -1.594322     9.261018     4.383917
H    -2.443381     9.390172     4.839877
H    -7.382522     1.528402    -5.241210
O    -7.953484     0.781945    -4.994254
H    -8.857076     1.177156    -4.918228
H     6.943074    -1.060017    -8.402546
O     6.365030    -1.784980    -8.664016
H     6.139685    -2.233761    -7.830810
H    -1.693297     6.225863    -7.027656
O    -2.086774     5.399118    -6.752209
H    -1.837000     5.271410    -5.788486
H     0.012330     3.336891     9.022617
O     0.214357     2.418787     9.279848
H    -0.582445     2.151728     9.787242
H     6.786396    -2.744459    -2.698368
O     6.262726    -3.491686    -2.352670
H     6.734237    -4.299297    -2.602942
H    -4.047106    -3.096058    -4.927307
O    -4.202752    -2.985845    -5.892278
H    -4.754372    -2.195916    -5.949253
H     1.996480     2.218165     8.465228
O     2.659439     2.332242     7.774538
H     3.085423     1.463685     7.660595
H    -6.864065    -5.230410    -1.372184
O    -7.778984    -5.504048    -1.616179
H    -7.914981    -5.104584    -2.500083
H    -3.828021     5.257096     5.695911
O    -3.799455     6.024563     5.103629
H    -2.866828     6.323513     5.196226
H    -7.867292     0.053200    -1.952969
O    -7.381799     0.778574    -2.368537
H    -7.610643     0.763993    -3.321559
H     5.856709     0.166247     0.412898
O     5.632500     0.888296     1.032155
H     6.143856     0.697439     1.845247
H    -6.204995     3.304493     7.401295
O    -6.073956     2.788765     8.231010
H    -6.670474     2.024230     8.144742
H     2.439963    -8.110572    -0.832125
O     3.064606    -8.085431    -1.579144
H     2.754129    -8.761420    -2.206048
H    -2.711253    -3.980870    -6.179698
O    -1.953580    -4.541755    -5.948294
H    -1.678744    -4.248022    -5.051171
H    -5.637581     3.753077     5.312895
O    -6.287853     4.147986     5.929952
H    -6.128916     5.092778     5.914123
H    -0.969633    -7.117932    -3.144845
O    -0.503811    -6.438116    -2.624160
H     0.406966    -6.374395    -2.994857
H     4.458845     2.056081     5.127727
O     3.516157     2.290721     5.007817
H     3.132233     2.306868     5.889881
H     4.111883     4.697507     6.294419
O     4.189567     5.426387     5.674437
H     3.621941     5.181832     4.904749
H     2.770133     3.646419     3.919476
O     2.588558     4.585396     3.751638
H     2.467156     4.681210     2.785144
H     9.411500     0.261319    -1.073408
O     8.605158     0.421152    -0.579448
H     8.433145    -0.397150    -0.084574
H    -2.097491     5.341319     10.648113
O    -2.816121     4.709723     10.881602
H    -3.034682     4.888124     11.796496
H     8.006363    -2.964518     0.334714
O     8.425174    -2.116568     0.586680
H     8.359319    -2.107214     1.548972
H     5.375834     3.705370     3.519348
O     6.031513     3.975104     4.184472
H     5.615682     4.692101     4.685207
H    -4.205095     5.031132     9.784818
O    -4.839605     5.177593     9.063144
H    -5.447746     4.425922     9.062664
H    -6.977332    -3.511818    -3.465215
O    -7.595534    -4.126945    -3.912270
H    -7.072716    -4.568569    -4.613493
H     0.027255     6.160013     10.764554
O    -0.839088     6.487012     10.517599
H    -0.726311     6.915956     9.650075
H     2.597791     1.506887    -4.104484
O     3.475074     1.863877    -3.867554
H     3.797799     1.352453    -3.095768
H    -6.945428    -0.228111     7.233202
O    -7.457583     0.548534     7.512352
H    -8.082210     0.727293     6.808331
H    -2.673687    -9.880411    -0.799302
O    -2.619287    -8.939326    -0.965553
H    -3.525347    -8.577500    -0.721817
H    -10.068162     3.025172    -4.888685
O    -10.180781     2.107758    -4.606029
H    -10.395848     2.192615    -3.656224
H    -2.029556    -3.016516     4.629029
O    -2.902554    -3.459911     4.700605
H    -2.893462    -4.080056     3.945821
H    -0.120110    -7.969104     2.521586
O     0.704555    -7.752303     2.968167
H     1.422268    -8.039240     2.361509
H     6.744430    -2.322600     6.396488
O     7.194985    -3.033068     5.934905
H     6.566473    -3.769354     5.901107
H    -5.236746    -2.005136     6.959617
O    -5.915909    -1.511169     6.475447
H    -5.898642    -1.890054     5.566942
H     0.834648     3.028780    -7.115127
O     1.753933     2.702529    -7.171880
H     1.742768     1.953343    -7.795758
H    -3.971277     8.760356     6.664270
O    -3.970087     8.756190     5.706908
H    -4.091170     7.827473     5.441279
H    -2.092037     10.305987    -2.751016
O    -2.994879     10.482741    -3.052148
H    -2.926987     11.115109    -3.766835
H     9.452652    -4.001516     4.052216
O     9.173639    -4.681868     4.672883
H     8.744734    -4.210772     5.398449
H    -0.691612    -6.005212    -5.820091
O     0.015028    -6.568445    -5.487847
H     0.848168    -6.103556    -5.705670
H     1.805968     8.293127     0.651437
O     1.500383     8.611785    -0.226457
H     2.314261     8.652284    -0.757936
H     3.497505     2.939327    -6.665538
O     4.326984     2.654047    -6.256475
H     4.083795     2.381373    -5.346714
H     3.717375     7.147734    -1.242327
O     3.918857     8.083916    -1.458019
H     4.287072     8.027542    -2.351724
H     4.406767     0.003856    -7.909266
O     4.784992     0.154073    -7.040994
H     4.598317     1.085491    -6.799026
H     6.040047     1.968768    -0.478984
O     6.603859     2.162680    -1.241699
H     7.430979     1.687920    -1.047240
H     6.922773    -8.468333    -1.763035
O     7.507313    -8.155518    -2.492441
H     7.683286    -8.900863    -3.067490
H    -5.259020    -5.817740    -5.382937
O    -5.879703    -5.149445    -5.698888
H    -5.332287    -4.379215    -5.937671
H     0.674913     7.201497     7.591604
O    -0.226354     7.225700     7.952008
H    -0.782774     7.235744     7.135040
H    -8.868037    -2.877098    -4.080660
O    -9.392390    -2.070681    -3.914863
H    -9.109799    -1.406008    -4.546764
H    -2.364862    -5.996318    -2.120875
O    -3.244074    -5.713544    -2.390321
H    -3.430081    -6.092912    -3.274126
H    -2.942993    -5.919066    -5.386734
O    -3.540470    -6.530161    -4.913563
H    -3.054494    -7.347502    -4.743265
H    -1.395509     3.712617    -6.982986
O    -0.850986     2.960228    -6.711288
H    -1.085115     2.172539    -7.258818
H    -0.194815     0.406084    -8.210000
O    -1.091496     0.638071    -7.926055
H    -1.263567     0.115203    -7.126902
H    -10.425158     4.005789    -2.726327
O    -10.488560     3.228232    -2.156236
H    -9.658378     3.206517    -1.648433
H     4.581648     4.114001     1.714001
O     4.378666     3.192604     1.995154
H     5.096690     2.619658     1.713482
H     6.494346     1.427433    -4.222329
O     6.196090     0.803071    -3.526392
H     6.224145     1.301182    -2.684048
H     9.662157    -2.173611    -0.927487
O     9.936513    -1.961524    -1.828437
H     9.134446    -1.626222    -2.271678
H     10.002315    -3.270188    -3.095544
O     9.737359    -3.925774    -3.767977
H     9.340160    -3.422518    -4.489490
H    -7.639754    -8.606550    -1.633439
O    -6.905342    -8.008763    -1.765281
H    -7.287166    -7.097640    -1.755940
H     4.147009     6.100500    -3.831598
O     4.804918     6.805055    -3.749127
H     5.643392     6.355437    -3.611312
H     0.152034    -8.175217    -5.188793
O     0.181563    -9.157208    -5.054938
H     0.331945    -9.522255    -5.926943
H    -2.274042    -8.681916    -2.687960
O    -2.043945    -8.420458    -3.599467
H    -1.392905    -9.036057    -3.955160
H     2.252324    -10.805286    -3.450766
O     2.209273    -9.850056    -3.441156
H     1.418366    -9.587619    -3.962318
H     6.834433     3.361083    -4.582181
O     6.895291     2.681389    -5.281387
H     6.100641     2.809464    -5.821662
H    -3.519942    -3.714323     7.738907
O    -3.637770    -2.927858     7.207636
H    -3.386694    -3.167862     6.289335
H    -0.608694    -3.372448    -6.709051
O     0.017977    -2.637782    -6.719796
H    -0.467300    -1.864141    -6.379030
H     0.667184     0.491887     8.757695
O     0.677922    -0.224479     8.118923
H    -0.242988    -0.518125     8.032622
H    -5.854347     7.339251    -4.255079
O    -6.354804     6.716852    -4.814358
H    -6.637511     5.985623    -4.221389
H    -4.306216     9.084210    -3.272244
O    -4.837969     8.285749    -3.163698
H    -4.426509     7.809702    -2.424232
H    -9.724358     5.749129    -4.642518
O    -10.253665     4.942294    -4.476581
H    -11.135553     5.138080    -4.794994
H     2.762920     6.550615     6.129825
O     1.802525     6.642708     6.228647
H     1.463119     5.727520     6.128585
H     4.781941     8.578659     0.067226
O     5.100760     8.583247     0.987668
H     5.511427     7.720971     1.120206
H     4.190562    -7.409826    -4.324550
O     3.434826    -7.700286    -4.865433
H     3.156083    -8.539672    -4.483444
H     0.358943     8.679102     4.221615
O     1.039919     8.037602     3.994350
H     1.269311     7.547433     4.809803
H     5.231292     4.217860    -3.165724
O     6.192963     4.192284    -3.113995
H     6.405234     3.613924    -2.364763
H    -2.543116    -1.531953     7.585794
O    -2.036559    -0.735674     7.803867
H    -2.665364    -0.111815     8.177020
H    -9.050594     7.893288    -4.148094
O    -8.985270     7.307583    -4.903828
H    -8.027519     7.147661    -5.039377
H     3.310442    -9.072782     1.505633
O     2.740357    -8.298318     1.322014
H     3.263191    -7.539359     1.635889
H     3.566178     8.201643     1.814742
O     2.778787     7.634284     1.929050
H     2.331946     7.869736     2.754937
N     4.688613    -10.262332     1.395445
H     5.156559    -9.759032     0.689550
H     5.296823    -10.269682     2.140083
