603

H     0.210702     3.031767    -0.686879
O     0.723316     2.361316    -1.185088
H     1.671622     2.486902    -0.926939
H    -0.058722    -1.299835     3.147789
O     0.331807    -0.599697     2.602528
H    -0.145719     0.213813     2.834676
H    -2.386178     2.414401    -0.541016
O    -2.176390     1.945800     0.284289
H    -2.188736     0.997558     0.060147
H    -4.646612     0.554490     2.182525
O    -4.963969    -0.378687     2.197262
H    -4.460113    -0.857346     1.530764
H     0.079966    -0.303048     0.945801
O    -0.126230    -0.066806     0.020885
H     0.219973     0.826522    -0.106065
H    -0.136619    -3.567582     3.776380
O    -0.415372    -2.738107     4.198439
H     0.233423    -2.567280     4.897584
H    -4.871916     2.536858     1.329199
O    -4.231230     2.129027     1.943758
H    -3.389765     2.109263     1.428497
H    -3.238537     3.900091    -2.217555
O    -2.499839     3.304815    -1.986273
H    -2.142969     3.014016    -2.845800
H    -0.112395    -3.800341     0.502623
O     0.227220    -2.982959     0.920582
H    -0.559478    -2.495489     1.231652
H    -2.362428    -1.530811     2.469294
O    -2.176084    -1.998363     1.629004
H    -2.432722    -1.411404     0.898697
H     2.083707    -1.440901    -1.128794
O     2.314601    -1.695423    -0.211939
H     1.525962    -2.121741     0.173199
H    -1.375527     1.830309     1.905618
O    -1.466450     1.435495     2.783100
H    -1.450202     2.148934     3.446367
H     0.219742    -2.700053    -1.572791
O    -0.537362    -2.089910    -1.625614
H    -0.356227    -1.361838    -0.993821
H    -3.424176    -2.920510    -0.387892
O    -2.708440    -3.413826    -0.809582
H    -1.997559    -2.784234    -1.029436
H     2.793318     0.135733     2.918678
O     2.890359    -0.042382     3.883577
H     2.980791     0.851702     4.281866
H    -3.516910     6.384290    -0.551707
O    -3.278757     7.046715    -1.252290
H    -3.137469     7.892047    -0.782594
H     3.909570     0.573802     1.190646
O     2.952013     0.403757     1.293027
H     2.721678    -0.349023     0.713285
H    -5.771147     0.845888    -1.603017
O    -4.860640     1.173602    -1.478665
H    -4.970727     2.002224    -0.967483
H    -1.197761     5.403989     2.202086
O    -1.822101     4.656998     2.086017
H    -1.900085     4.238305     2.948479
H     3.370829     2.598919     0.325512
O     3.257618     2.650990    -0.637983
H     3.541291     1.774252    -0.975466
H     1.501707    -4.695232    -2.253590
O     1.565497    -3.917642    -1.681016
H     2.360503    -3.456258    -2.031598
H    -0.912757    -0.084302    -2.551314
O    -0.282075     0.568807    -2.880258
H    -0.017444     1.152248    -2.144852
H     1.712494    -4.680812    -0.181375
O     1.817970    -5.317164     0.562275
H     1.355407    -6.128717     0.266598
H    -1.216856    -3.264081    -2.879515
O    -1.047038    -3.948641    -3.540092
H    -0.918283    -4.794766    -3.070295
H    -2.761773     3.318775     4.698903
O    -1.780364     3.317935     4.664693
H    -1.486881     2.914987     5.500114
H     0.974896     5.045422     4.066473
O     0.028475     5.277624     4.116954
H    -0.443229     4.474316     4.375618
H    -1.719219    -4.646831    -0.369525
O    -0.954052    -5.187915    -0.085424
H    -1.300501    -5.873415     0.494995
H    -3.908316     5.834264    -2.606018
O    -4.260334     4.999926    -2.933533
H    -4.107009     4.963008    -3.901956
H    -2.415833    -3.682842     1.938346
O    -2.433877    -4.586293     2.315961
H    -1.493687    -4.824415     2.454620
H    -4.687376    -2.978903    -2.893731
O    -3.836153    -3.212288    -3.301854
H    -3.503373    -4.004694    -2.835765
H     0.359812     1.386199     4.605580
O     0.863961     2.148746     4.274014
H     0.910018     2.805632     4.982570
H    -4.645177    -5.166765    -1.563834
O    -5.346430    -4.812969    -0.989484
H    -5.131677    -5.166207    -0.105262
H     2.332902    -6.482060    -4.041344
O     1.996125    -6.153238    -3.187804
H     2.433010    -6.724869    -2.524297
H     0.472771    -3.379952    -4.008555
O     1.274763    -3.014615    -4.434167
H     0.954286    -2.642627    -5.281939
H     1.982994    -1.744453     2.972688
O     2.134033    -2.677279     2.761010
H     1.449421    -2.890715     2.092899
H    -3.007693    -1.808732    -3.208786
O    -2.586021    -0.922014    -3.145190
H    -3.241607    -0.276951    -3.465135
H    -3.177109     4.981284     1.072322
O    -3.958754     5.355782     0.618832
H    -4.373089     5.913597     1.325242
H     0.893023     2.258697     2.581492
O     0.991416     2.254514     1.610595
H     1.718483     1.629256     1.446592
H     0.198387     5.658425    -0.773231
O     0.721811     6.321883    -1.279776
H     0.860492     7.120919    -0.723554
H     0.360179     7.043124     2.576923
O    -0.002149     6.666002     1.758398
H     0.655952     5.989033     1.497624
H    -2.462868     0.224075     3.339003
O    -2.684567    -0.588533     3.846234
H    -1.922294    -0.628578     4.465543
H    -0.872384     0.564675     6.021103
O    -0.598801     0.046642     5.245856
H     0.114718    -0.557814     5.530916
H     0.724311    -4.987013     1.979574
O     0.182695    -5.096418     2.784712
H     0.328655    -6.016603     3.057469
H    -2.106229    -8.082914     0.454971
O    -1.783101    -7.594677     1.239655
H    -2.568810    -7.282254     1.695869
H    -0.370836     6.865315    -2.339566
O    -1.117405     7.287146    -2.836117
H    -1.906839     7.159378    -2.271837
H    -1.102399     4.315406     0.563942
O    -0.730746     4.380345    -0.332137
H    -1.435757     4.132240    -0.964216
H    -4.391607     2.756246     3.505025
O    -4.388227     2.928146     4.469525
H    -4.471259     2.045488     4.879745
H     2.042169    -3.573583     4.239349
O     1.978996    -4.044117     5.093910
H     2.488315    -3.507324     5.722289
H     4.704663    -3.185673     0.827437
O     4.539690    -3.117923    -0.137737
H     3.683857    -2.636282    -0.220142
H    -2.712156    -0.745116    -1.351772
O    -3.039164    -0.474119    -0.477476
H    -3.839460     0.051678    -0.684383
H    -1.610918    -0.761337    -4.633643
O    -1.106293    -0.545983    -5.439097
H    -0.395247     0.050210    -5.155710
H     1.800294    -1.716129    -3.384582
O     1.892211    -0.969217    -2.762190
H     1.116677    -0.390507    -2.894041
H     3.680234    -3.114703     2.542656
O     4.638850    -3.344740     2.473065
H     4.692172    -4.305161     2.596436
H     3.441905    -6.114087     3.118809
O     3.795876    -5.916007     2.217673
H     3.058630    -5.568428     1.675558
H    -3.337561     1.610840    -4.180629
O    -4.183411     1.141976    -3.988549
H    -4.398544     1.287678    -3.031470
H    -5.070880     4.152937     0.063187
O    -5.509617     3.286789    -0.036916
H    -6.440267     3.405156    -0.318361
H     6.742247    -1.158932    -1.373601
O     5.974574    -1.002289    -0.818231
H     5.560491    -1.868760    -0.617871
H     4.600529    -3.164878    -2.477667
O     3.732640    -2.996482    -2.895241
H     3.737186    -3.617159    -3.649475
H     4.453527    -2.284566     5.610067
O     4.114989    -2.746284     6.408080
H     4.447161    -3.652396     6.326131
H    -0.735097     6.347687     5.063736
O    -1.328309     6.926134     5.603331
H    -1.343429     7.801852     5.159401
H     4.713555    -0.114130    -1.463229
O     3.944293     0.412571    -1.756692
H     3.254213    -0.199497    -2.066767
H    -0.736794     4.522084    -4.047109
O    -1.519150     5.066218    -4.254918
H    -1.366342     5.933198    -3.834519
H     0.665045     3.202728    -2.668605
O     0.672298     3.581180    -3.577025
H     0.720734     2.817573    -4.162337
H    -5.369374    -5.186129     1.802992
O    -4.673454    -5.781420     1.447387
H    -3.832287    -5.365358     1.716086
H     7.885673    -1.691289    -4.053472
O     7.631044    -1.380757    -3.152373
H     7.148219    -0.534719    -3.298948
H     3.704490    -5.075658    -5.295466
O     4.468253    -4.701515    -4.817322
H     4.853288    -5.410897    -4.269695
H    -3.764393     0.029791     4.935218
O    -4.363832     0.494686     5.568887
H    -5.023904    -0.163073     5.861853
H     3.474887    -5.938451    -0.524590
O     4.347097    -5.692398    -0.844278
H     4.425078    -4.729541    -0.699941
H     5.006397    -0.336320    -4.168456
O     4.473204    -1.047280    -4.559929
H     4.146168    -1.630217    -3.841551
H    -1.168070     1.571495    -3.941250
O    -1.818666     2.192603    -4.327071
H    -1.461843     2.521910    -5.174515
H     4.892504    -6.319963    -2.321322
O     5.222445    -6.648332    -3.187051
H     6.041888    -7.127055    -3.001340
H     8.746762    -5.091861    -2.933055
O     8.056446    -5.509994    -2.373546
H     8.091406    -6.467239    -2.474789
H     2.190538     4.710550     0.403753
O     1.715151     4.679812     1.243578
H     1.320689     3.768870     1.301801
H    -4.397520    -2.624274     4.235863
O    -5.291797    -2.284264     4.035255
H    -5.155631    -1.504404     3.457830
H    -5.832984    -3.188748     1.324889
O    -6.295058    -3.744575     1.994868
H    -6.104796    -3.308177     2.844467
H     1.709760     3.480904     6.850272
O     1.088566     3.999738     6.317399
H     0.304606     4.151507     6.888410
H     5.020170    -2.157788     3.603834
O     5.037361    -1.443500     4.272769
H     4.229760    -0.883603     4.107645
H     2.408121    -5.567067     4.835649
O     2.787857    -6.451446     4.577532
H     2.042739    -7.032841     4.403384
H     2.257785    -4.520480    -6.794057
O     2.088893    -5.008283    -5.978052
H     1.826128    -4.316155    -5.322585
H     6.449863    -4.098081    -0.514645
O     7.201403    -4.506355    -0.052622
H     7.708093    -4.927535    -0.774602
H    -1.700385     4.503693     7.692698
O    -0.800219     4.603216     8.075271
H    -0.620663     5.562409     8.099257
H    -5.115462     5.692204    -5.601399
O    -4.507911     4.928771    -5.621091
H    -3.751532     5.141999    -6.188723
H     3.279654    -2.533771    -8.444549
O     3.192812    -3.065871    -7.642835
H     4.069860    -3.040827    -7.214522
H    -0.652412     8.828345    -2.294084
O    -0.527167     9.658152    -1.777225
H     0.235482     9.484866    -1.201466
H     2.086620    -0.901624     5.200700
O     1.515062    -1.425370     5.791689
H     1.611389    -1.079163     6.688101
H     5.208088    -2.027522    -5.703955
O     5.551338    -2.794334    -6.227064
H     5.279946    -3.583654    -5.707154
H     5.712521    -5.206110     4.677907
O     5.192095    -5.119761     5.505854
H     4.470209    -5.751529     5.421691
H    -3.951055     1.160432     7.006455
O    -3.757257     1.637953     7.849154
H    -4.633037     2.023506     8.111086
H    -1.840620     9.619268    -0.760751
O    -2.699422     9.493952    -0.283475
H    -3.312150     10.120555    -0.671993
H    -5.941532     4.691276    -2.940759
O    -6.850712     4.572129    -3.283517
H    -6.761245     3.868505    -3.959593
H     0.103102    -7.061447    -1.140516
O     0.568218    -7.497383    -0.393448
H    -0.109721    -7.690395     0.257192
H    -7.629021     3.794389    -1.972092
O    -7.889212     3.208771    -1.230547
H    -7.746915     2.299414    -1.568868
H     3.990816    -0.882723     6.975241
O     4.006446     0.081874     6.965987
H     4.818404     0.363977     6.531585
H     2.204777     5.875643    -1.287776
O     3.134071     5.560705    -1.141347
H     3.328516     5.035573    -1.946855
H     6.562033    -5.925444     0.661955
O     6.194649    -6.661305     1.198016
H     5.290242    -6.383896     1.424731
H    -3.843476     4.744694     7.775744
O    -3.277227     4.281203     7.116893
H    -3.471197     3.337897     7.228112
H     5.773356    -7.941571     0.132693
O     5.483849    -8.630355    -0.502482
H     4.654887    -8.304363    -0.896755
H    -0.533562     2.055866     7.686546
O    -1.167790     1.992744     6.952395
H    -2.035702     1.850119     7.349933
H    -6.369911    -0.114663     1.067501
O    -6.692205    -0.198054     0.155324
H    -7.610542    -0.470021     0.175306
H    -5.361843    -3.059380    -0.580950
O    -5.109759    -2.356259     0.043893
H    -5.679365    -1.583524    -0.144944
H     4.208762     5.612923     0.280682
O     4.601933     5.684645     1.172040
H     3.983862     6.303714     1.610800
H    -9.037024    -1.741733    -2.241531
O    -8.488248    -1.538933    -1.456493
H    -8.613972    -2.275062    -0.817864
H    -5.522408     3.469070    -5.528870
O    -6.039291     2.759619    -5.111632
H    -5.371905     2.174317    -4.698521
H     3.183070    -0.891355    -5.663757
O     2.326839    -1.011952    -6.128809
H     2.411540    -1.861863    -6.600728
H     8.114020    -1.354218    -6.048776
O     8.124084    -2.218395    -5.592798
H     7.266688    -2.618268    -5.838864
H     7.621233     0.985297    -6.327913
O     7.431785     0.137601    -6.742456
H     6.450424     0.087155    -6.775581
H    -7.848569    -3.685229     0.942157
O    -8.528394    -3.579364     0.258995
H    -8.430878    -4.339438    -0.342047
H    -2.394225     8.743787     1.280119
O    -2.240600     8.157004     2.033991
H    -1.471939     7.602666     1.809151
H    -4.426467     6.445764     3.490675
O    -4.597995     6.871087     2.634141
H    -3.834740     7.456595     2.492425
H     3.411559     3.449047    -3.587154
O     3.252408     4.417931    -3.496982
H     2.287404     4.476495    -3.606615
H    -6.110704    -1.604471    -3.435359
O    -6.192771    -2.182431    -2.650334
H    -6.975737    -1.874200    -2.140952
H     6.503942     1.078151     4.851188
O     6.098597     1.627998     5.539809
H     6.253109     2.539430     5.207006
H     1.362649     1.718436    -5.833235
O     1.167239     1.123906    -5.078569
H     1.533222     0.261012    -5.345378
H    -2.460259     2.982897     10.478676
O    -2.247697     2.075273     10.205860
H    -2.847066     1.874082     9.475210
H     7.562868    -0.629065     3.152321
O     6.871181     0.017674     3.341027
H     6.160759    -0.565652     3.726824
H    -5.650561    -8.049337    -0.686178
O    -4.915007    -8.117564    -0.040596
H    -4.917348    -7.299307     0.479862
H    -5.174501    -0.119269    -4.711981
O    -5.792250    -0.831263    -4.949541
H    -6.630595    -0.389795    -5.147025
H     1.888607    -0.204047    -7.523014
O     1.685152     0.266218    -8.367483
H     2.261128    -0.139856    -9.020703
H     4.867452    -1.401550    -9.315306
O     3.941979    -1.172862    -9.597083
H     3.920498    -1.293526    -10.545716
H     7.577612    -2.572488     4.188352
O     7.728518    -2.607492     3.229483
H     7.230432    -3.393456     2.952804
H     6.733438    -5.889076     2.674742
O     6.796345    -5.215674     3.377737
H     7.673987    -5.299489     3.791561
H    -1.802246     8.957977     3.482175
O    -1.551073     9.263642     4.379338
H    -2.398463     9.397439     4.837145
H    -7.388117     1.566865    -5.245667
O    -7.962696     0.823136    -4.998767
H    -8.864206     1.222812    -4.921851
H     6.922352    -1.090724    -8.419567
O     6.340139    -1.812118    -8.681820
H     6.113247    -2.260783    -7.848870
H    -1.676235     6.236950    -7.033885
O    -2.075481     5.413004    -6.758383
H    -1.824519     5.282111    -5.795489
H     0.026795     3.329241     9.013054
O     0.225549     2.410361     9.270000
H    -0.572165     2.146175     9.777540
H     6.762021    -2.777939    -2.712396
O     6.230849    -3.523894    -2.376177
H     6.701221    -4.333482    -2.622260
H    -4.075527    -3.074224    -4.938120
O    -4.231909    -2.962863    -5.902762
H    -4.778878    -2.169640    -5.958816
H     2.003441     2.200432     8.453820
O     2.667240     2.310992     7.763257
H     3.087275     1.439862     7.648656
H    -6.900180    -5.197304    -1.381948
O    -7.816382    -5.466782    -1.625499
H    -7.951214    -5.065607    -2.508900
H    -3.806420     5.269802     5.691266
O    -3.774122     6.037778     5.099813
H    -2.840114     6.331810     5.192192
H    -7.877799     0.091756    -1.958129
O    -7.389234     0.815147    -2.373483
H    -7.618551     0.802284    -3.326433
H     5.809487     0.187507     0.349439
O     5.570931     0.783913     1.083312
H     6.050321     0.444024     1.868861
H    -6.191259     3.328195     7.397301
O    -6.061994     2.811403     8.226598
H    -6.662304     2.049812     8.140332
H     2.286049    -8.070150    -0.840851
O     2.961971    -8.059012    -1.538103
H     2.735799    -8.773698    -2.149911
H    -2.744974    -3.964536    -6.192243
O    -1.991311    -4.530856    -5.960926
H    -1.713176    -4.238034    -5.064676
H    -5.623369     3.775407     5.308492
O    -6.270756     4.173253     5.926704
H    -6.107890     5.117355     5.910577
H    -1.013922    -7.113166    -3.157755
O    -0.541161    -6.442912    -2.630698
H     0.366269    -6.374121    -3.012236
H     4.467215     2.032854     5.115181
O     3.526659     2.276530     4.997286
H     3.140468     2.283534     5.878190
H     4.149704     4.670739     6.270449
O     4.241743     5.385800     5.636527
H     3.642361     5.154179     4.888268
H     2.712850     3.586742     4.020579
O     2.552346     4.526905     3.828720
H     2.525514     4.617474     2.857244
H     9.406027     0.030925    -1.130120
O     8.596595     0.243355    -0.651659
H     8.423752    -0.557726    -0.123741
H    -2.071339     5.342443     10.642095
O    -2.792707     4.714164     10.875569
H    -3.009892     4.892781     11.790752
H     7.981772    -3.009667     0.314366
O     8.412995    -2.168297     0.569078
H     8.338669    -2.155099     1.530337
H     5.321038     3.633334     3.567879
O     6.033673     3.981928     4.142706
H     5.587540     4.678533     4.662586
H    -4.181153     5.043167     9.780211
O    -4.815065     5.193546     9.058849
H    -5.427340     4.445214     9.058209
H    -7.006739    -3.476504    -3.473522
O    -7.628214    -4.088746    -3.920081
H    -7.108240    -4.532006    -4.622412
H     0.057927     6.150324     10.757270
O    -0.806739     6.482059     10.510784
H    -0.692274     6.911345     9.643779
H     2.594487     1.496986    -4.115216
O     3.473519     1.850257    -3.881790
H     3.795377     1.333686    -3.110637
H    -6.949340    -0.200498     7.227388
O    -7.457152     0.578683     7.507427
H    -8.081835     0.760718     6.804293
H    -2.735111    -9.868833    -0.816078
O    -2.672335    -8.927450    -0.977540
H    -3.577610    -8.560490    -0.735827
H    -10.066103     3.076807    -4.889768
O    -10.183183     2.159776    -4.607693
H    -10.396980     2.244967    -3.657651
H    -2.049833    -3.012261     4.617152
O    -2.925240    -3.451282     4.689040
H    -2.920369    -4.070265     3.933553
H    -0.164351    -7.973548     2.491612
O     0.662495    -7.763175     2.938668
H     1.380115    -8.059196     2.351010
H     6.721866    -2.366883     6.382186
O     7.173618    -3.075772     5.919733
H     6.544266    -3.811173     5.879305
H    -5.249938    -1.985872     6.950944
O    -5.927021    -1.488140     6.467727
H    -5.912374    -1.866360     5.558886
H     0.834311     3.026879    -7.125956
O     1.752215     2.697533    -7.184378
H     1.737494     1.947654    -7.807377
H    -3.931727     8.773656     6.662078
O    -3.927763     8.770267     5.704734
H    -4.055909     7.842805     5.438114
H    -2.051887     10.316368    -2.754619
O    -2.954518     10.498159    -3.053136
H    -2.885205     11.129695    -3.768433
H     9.425593    -4.054523     4.027253
O     9.149741    -4.730620     4.653881
H     8.720227    -4.256396     5.376674
H    -0.735110    -5.999866    -5.835694
O    -0.031335    -6.566486    -5.503088
H     0.804025    -6.105138    -5.722189
H     1.840437     8.278894     0.646672
O     1.536941     8.602831    -0.228323
H     2.348324     8.639133    -0.763507
H     3.497384     2.923831    -6.677704
O     4.325879     2.634783    -6.269644
H     4.082340     2.362841    -5.359255
H     3.739682     7.125364    -1.257932
O     3.951059     8.061595    -1.467147
H     4.320234     8.004230    -2.360880
H     4.391756    -0.013595    -7.924474
O     4.770600     0.133261    -7.055968
H     4.589880     1.065570    -6.812785
H     6.583519     2.660744    -0.477822
O     6.821846     2.280378    -1.335032
H     7.511954     1.625694    -1.115565
H     6.689808    -8.429936    -1.611243
O     7.324437    -8.221702    -2.349600
H     7.689395    -9.056998    -2.636554
H    -5.301369    -5.789336    -5.394660
O    -5.919194    -5.117817    -5.709275
H    -5.368251    -4.350034    -5.948072
H     0.710076     7.191656     7.584168
O    -0.190516     7.220095     7.944727
H    -0.748150     7.232906     7.128363
H    -8.894589    -2.832106    -4.087097
O    -9.414794    -2.023250    -3.920221
H    -9.129455    -1.359500    -4.551870
H    -2.404090    -5.984584    -2.135857
O    -3.283292    -5.699640    -2.402670
H    -3.471755    -6.075054    -3.287801
H    -2.986585    -5.901226    -5.400406
O    -3.586044    -6.510314    -4.926643
H    -3.103793    -7.330259    -4.759199
H    -1.393075     3.721407    -6.991979
O    -0.851844     2.966870    -6.720186
H    -1.088834     2.180175    -7.268034
H    -0.207537     0.411274    -8.221038
O    -1.103212     0.647040    -7.936754
H    -1.276811     0.124885    -7.137456
H    -10.416405     4.057588    -2.726560
O    -10.483308     3.280170    -2.156671
H    -9.652663     3.253838    -1.649851
H     4.417050     3.973080     1.731034
O     4.281697     3.058791     2.053727
H     4.976065     2.528444     1.630552
H     6.495869     1.408821    -4.222871
O     6.194329     0.786260    -3.524861
H     6.206888     1.278435    -2.689952
H     9.641002    -2.226061    -0.948082
O     9.915860    -2.018713    -1.850071
H     9.116359    -1.673317    -2.289941
H     9.971476    -3.324428    -3.114894
O     9.706431    -3.976829    -3.790844
H     9.309748    -3.469274    -4.509439
H    -7.692934    -8.569339    -1.644791
O    -6.955188    -7.975408    -1.775479
H    -7.332459    -7.062243    -1.766252
H     4.169594     6.078015    -3.839132
O     4.830981     6.778903    -3.750260
H     5.667600     6.321809    -3.625312
H     0.097641    -8.172101    -5.208886
O     0.121031    -9.154953    -5.075974
H     0.270950    -9.519586    -5.948266
H    -2.328225    -8.671102    -2.704374
O    -2.097247    -8.409232    -3.615159
H    -1.450337    -9.027380    -3.973974
H     2.185148    -10.816615    -3.489306
O     2.139428    -9.862058    -3.465905
H     1.353482    -9.591349    -3.991296
H     6.841023     3.326060    -4.597961
O     6.896453     2.643541    -5.297458
H     6.102164     2.777278    -5.836478
H    -3.541043    -3.704107     7.727608
O    -3.655276    -2.916641     7.197034
H    -3.406257    -3.157186     6.278352
H    -0.639952    -3.365878    -6.723474
O    -0.010181    -2.634130    -6.734355
H    -0.490789    -1.858367    -6.391732
H     0.666475     0.480471     8.747340
O     0.674413    -0.233756     8.106240
H    -0.247369    -0.524780     8.020461
H    -5.830680     7.369236    -4.256577
O    -6.334712     6.749924    -4.815957
H    -6.620275     6.019316    -4.223557
H    -4.272739     9.106017    -3.273751
O    -4.808541     8.310315    -3.165092
H    -4.398560     7.831223    -2.426822
H    -9.708543     5.798867    -4.641983
O    -10.241772     4.994639    -4.475955
H    -11.122793     5.194829    -4.794030
H     2.799617     6.530758     6.116680
O     1.840714     6.624363     6.217683
H     1.495653     5.710368     6.121280
H     4.653965     8.639696    -0.008932
O     4.981861     8.801822     0.903336
H     5.603643     8.077683     1.038803
H     4.144269    -7.426647    -4.344316
O     3.385647    -7.713078    -4.885200
H     3.106040    -8.553009    -4.506364
H     0.398098     8.671749     4.212286
O     1.078951     8.029620     3.985516
H     1.302575     7.536034     4.800230
H     5.299771     4.141397    -3.311231
O     6.256712     4.259497    -3.257119
H     6.543313     3.663705    -2.536449
H    -2.552954    -1.526536     7.575099
O    -2.042788    -0.732688     7.793633
H    -2.668753    -0.106412     8.167487
H    -9.023632     7.939285    -4.146643
O    -8.961969     7.353854    -4.902890
H    -8.005156     7.189065    -5.039368
H     3.541717    -8.972447     1.090817
O     2.864944    -8.341721     1.342082
H     3.339585    -7.535069     1.618742
H     3.599501     8.187277     1.803846
O     2.828130     7.602267     1.928872
H     2.369932     7.847710     2.746144
N     6.970794     4.066314     1.020675
H     6.363713     4.820723     1.075231
H     7.174787     3.889924     1.946423
