18

H    -4.053770    -3.041103    -4.900619
O    -4.233038    -2.930176    -5.863080
H    -4.762052    -2.115762    -5.883783
H    -2.597077    -3.877399    -6.223474
O    -1.875295    -4.472041    -5.961736
H    -1.617345    -4.171249    -5.059455
H    -6.961290    -3.426403    -3.461506
O    -7.576020    -4.039991    -3.927765
H    -7.036677    -4.464837    -4.621534
H    -5.243167    -5.782972    -5.420182
O    -5.862697    -5.163567    -5.843507
H    -5.323464    -4.354489    -5.978822
H    -2.886392    -5.948196    -5.344803
O    -3.516793    -6.549131    -4.901325
H    -3.022764    -7.352857    -4.659534
N    -5.666339    -6.422009    -8.435621
H    -6.477930    -6.282977    -8.930988
H    -5.836949    -5.993826    -7.577802
