30

H    -1.746374    -4.608327    -0.381746
O    -0.990084    -5.186237    -0.143761
H    -1.349785    -5.792789     0.516341
H    -2.376331    -3.602694     2.029734
O    -2.430119    -4.519799     2.377522
H    -1.489750    -4.777212     2.526799
H    -4.632053    -5.154718    -1.563490
O    -5.346086    -4.802574    -0.998936
H    -5.126063    -5.131931    -0.110292
H    -2.017727    -8.277186     0.519491
O    -1.703619    -7.774533     1.298166
H    -2.446794    -7.847032     1.936092
H    -5.392894    -5.024725     1.874440
O    -4.742752    -5.721702     1.579238
H    -3.866343    -5.308178     1.750019
H    -5.839192    -3.082964     1.317036
O    -6.314065    -3.639848     1.988107
H    -6.133474    -3.186020     2.836158
H    -5.731287    -8.084856    -0.765990
O    -4.985571    -8.145817    -0.120269
H    -4.956335    -7.278750     0.314477
H    -2.800836    -9.968038    -0.973271
O    -2.681986    -9.015876    -1.021631
H    -3.585836    -8.637521    -0.829020
H    -0.102230    -7.993751     2.500318
O     0.715154    -7.749356     2.960428
H     1.428899    -8.001224     2.345039
N    -3.961043    -8.062740     2.853318
H    -4.385847    -7.210396     2.627768
H    -4.480496    -8.698305     2.348171
