39
Coordinates from ORCA-job grain_mol_opt.QMRegion
  H   3.41801573046453     -5.80605043914443     -0.62346185243073
  O   4.23840933561693     -5.54281779374588     -1.05328838092061
  H   4.37407388368164     -4.61039177237964     -0.77792589506320
  H   5.02713494223620     -6.27910307918319     -2.42707912705427
  O   5.35972300037760     -6.68157488810883     -3.25649260776583
  H   6.30207929999253     -6.49037709097043     -3.34900576108027
  H   8.69116633033726     -4.84833097461683     -3.70887149234426
  O   8.00296341967347     -5.46224717577514     -3.35333094972606
  H   8.42684866459806     -5.83566086576563     -2.55809332287576
  H   6.80184468806210     -4.07755796544073     -0.86122720362762
  O   7.16360339767976     -4.40936397415757      0.00062574681946
  H   7.88574231304544     -5.01056073477592     -0.25330518731683
  H   6.27741814417599     -5.84685781690265      0.67118948147738
  O   6.06188044185544     -6.59800007959296      1.26779984036193
  H   5.16678968777562     -6.36007829615226      1.59066791103962
  H   5.48320231290191     -7.94912898161750      0.26606887158615
  O   5.20440799878277     -8.74026305363544     -0.24775914462210
  H   4.47665825230038     -8.41458974652204     -0.81953676875326
  H   6.73562910826115     -5.80919057007226      2.72280323322210
  O   6.81156884819935     -5.14488072755357      3.43471146979649
  H   7.67090976900969     -5.27021522860238      3.88094154609650
  H   6.80408062454641     -2.71088335488473     -2.66577358160934
  O   6.35308528985741     -3.53658436027903     -2.37811536682449
  H   6.82973091111095     -4.24765959058940     -2.86298785475030
  H   7.89412994279550     -2.87995334880331      0.46186208853672
  O   8.39868001162698     -2.08191845068283      0.73017467936995
  H   8.30749227715904     -2.09523833206936      1.69643741762454
  H   6.65102420335684     -8.80215921276738     -1.11711144420810
  O   7.55770413885104     -8.73668477056287     -1.52723838153831
  H   7.98688720416892     -9.56714845347284     -1.30510183060535
  H   9.68295640886556     -2.07440932327277     -0.90140378037086
  O   9.92076695306816     -1.77919053572372     -1.79701417940725
  H   9.05808668273346     -1.55730528686996     -2.20278018116758
  H   10.06110504649223     -3.06741313246493     -3.27992275299622
  O   9.90650866050095     -3.64554741053443     -4.05151698086699
  H   9.47178882234000     -3.07618043905618     -4.70788697927828
  O   8.83752900448449     -6.48489341044681     -0.86756643555779
  H   9.75283769111461     -6.66595614182224     -0.64064170487063
  H   8.39591637074153     -7.36999063085950     -0.99198472170755
