21
Coordinates from ORCA-job grain_mol_opt.QMRegion
  H   3.42946287479555     -6.09560012731737      3.11381287218599
  O   3.78162043068130     -5.88944457003994      2.20912726122087
  H   3.02927651958342     -5.54269758447546      1.68058657322335
  H   6.64137473708890     -5.81772481859905      0.67854461317116
  O   6.27610202494237     -6.60778954618366      1.15123758131678
  H   5.36647201500329     -6.33576451093615      1.37987530035612
  H   5.89499735105667     -7.81098828233277     -0.01506368437925
  O   5.66066931320707     -8.57727476622031     -0.59740812853917
  H   4.79917892202119     -8.33058381583366     -0.99666327022129
  H   2.41031417070655     -8.11712510362232     -0.88706440180429
  O   3.03507496564835     -8.08960513611461     -1.63390574649927
  H   2.72317354078068     -8.76176141526758     -2.26421416122916
  H   6.89241929420416     -8.47992644030306     -1.81932683285081
  O   7.47773616698028     -8.16469422239878     -2.54706639832258
  H   7.65194492138048     -8.90744188150567     -3.12600040703460
  H   3.27832385705389     -9.09315253517840      1.44555615793688
  O   2.70992646225029     -8.31648544968191      1.26604191466876
  H   3.23445767503925     -7.56032464252076      1.58380099610255
  O   4.65387791548339    -10.28521575690806      1.32967109104563
  H   5.26165748837310    -10.29733475964794      2.07459846962103
  H   5.12319100179153     -9.77939229472239      0.62649509900318
