12

H     3.176929    -2.570691    -8.412145
O     3.099771    -3.070243    -7.581188
H     3.985949    -3.020209    -7.178963
H     4.697264    -1.299644    -9.309806
O     3.778276    -1.228714    -9.642694
H     3.848822    -1.642345    -10.510245
H     6.929379    -1.109610    -8.350076
O     6.329295    -1.817572    -8.624295
H     6.075669    -2.237179    -7.779604
N     5.409614    -3.111795    -11.070874
H     6.013233    -2.869430    -10.351899
H     5.980339    -3.346368    -11.807031
