603

H     0.197131     3.051718    -0.658698
O     0.720735     2.381378    -1.143821
H     1.659994     2.514821    -0.875467
H    -0.075848    -1.291708     3.155872
O     0.316447    -0.588557     2.615561
H    -0.163847     0.222919     2.849779
H    -2.402077     2.434277    -0.521356
O    -2.193056     1.963442     0.302807
H    -2.204176     1.015967     0.074988
H    -4.664582     0.560682     2.191448
O    -4.980838    -0.372871     2.201339
H    -4.475559    -0.847773     1.533231
H     0.064775    -0.284348     0.959775
O    -0.138411    -0.046879     0.034773
H     0.204595     0.848331    -0.090902
H    -0.152411    -3.563439     3.774879
O    -0.432381    -2.735425     4.198873
H     0.213955    -2.566863     4.900915
H    -4.891070     2.545991     1.346507
O    -4.250435     2.136923     1.960191
H    -3.408299     2.120093     1.445947
H    -3.252044     3.926133    -2.192939
O    -2.511126     3.333760    -1.962510
H    -2.148349     3.050794    -2.823313
H    -0.121809    -3.780390     0.499634
O     0.217047    -2.964605     0.921561
H    -0.570960    -2.479281     1.233135
H    -2.378130    -1.523146     2.472461
O    -2.188676    -1.986487     1.630482
H    -2.446100    -1.397218     0.902231
H     2.075098    -1.409894    -1.116600
O     2.305636    -1.666489    -0.199473
H     1.516471    -2.096416     0.181432
H    -1.394223     1.841751     1.925520
O    -1.486196     1.442496     2.800835
H    -1.471611     2.152773     3.467685
H     0.211376    -2.671524    -1.569960
O    -0.546657    -2.062666    -1.620921
H    -0.367339    -1.335932    -0.987091
H    -3.434397    -2.901423    -0.392717
O    -2.716928    -3.392233    -0.814379
H    -2.007006    -2.760485    -1.031334
H     2.770858     0.146994     2.943206
O     2.869507    -0.037404     3.904947
H     2.959599     0.854298     4.311587
H    -3.549782     6.399455    -0.505924
O    -3.320110     7.070485    -1.202693
H    -3.171806     7.910994    -0.726856
H     3.898648     0.609360     1.196660
O     2.948506     0.426104     1.314432
H     2.711794    -0.322935     0.730120
H    -5.783087     0.867448    -1.595107
O    -4.873268     1.195632    -1.467217
H    -4.985453     2.021497    -0.952338
H    -1.219196     5.414329     2.238107
O    -1.842762     4.667658     2.116469
H    -1.921728     4.244238     2.976734
H     3.492224     2.781356     0.449263
O     3.237900     2.749010    -0.487751
H     3.575366     1.915605    -0.855396
H     1.495653    -4.661756    -2.257317
O     1.559441    -3.887100    -1.680680
H     2.353105    -3.423030    -2.030525
H    -0.922067    -0.049172    -2.537276
O    -0.287704     0.602247    -2.862193
H    -0.026052     1.187640    -2.127903
H     1.703466    -4.657190    -0.185675
O     1.810350    -5.296642     0.555166
H     1.348044    -6.107206     0.256006
H    -1.222842    -3.230502    -2.882707
O    -1.050359    -3.912624    -3.545145
H    -0.922312    -4.760355    -3.078327
H    -2.786650     3.316243     4.723073
O    -1.805277     3.317245     4.689545
H    -1.512038     2.911309     5.523697
H     0.954385     5.047456     4.102158
O     0.008203     5.280182     4.151693
H    -0.463921     4.476361     4.408123
H    -1.726454    -4.625205    -0.378708
O    -0.961094    -5.166514    -0.095260
H    -1.308295    -5.855414     0.480688
H    -3.927702     5.862579    -2.574338
O    -4.273010     5.027701    -2.906389
H    -4.122908     4.995521    -3.875771
H    -2.428501    -3.672500     1.931769
O    -2.446161    -4.577682     2.305343
H    -1.506059    -4.815362     2.444672
H    -4.693212    -2.949783    -2.900706
O    -3.841067    -3.180717    -3.308237
H    -3.508372    -3.974703    -2.844947
H     0.335579     1.387253     4.628373
O     0.840017     2.150111     4.298170
H     0.888052     2.805785     5.007947
H    -4.650714    -5.143659    -1.580456
O    -5.353251    -4.793219    -1.005624
H    -5.139527    -5.150186    -0.122680
H     2.332606    -6.439496    -4.052440
O     1.994896    -6.114805    -3.197684
H     2.430513    -6.689858    -2.536413
H     0.469335    -3.339267    -4.008601
O     1.272249    -2.971764    -4.430526
H     0.952871    -2.595438    -5.276980
H     1.963747    -1.734990     2.984368
O     2.119800    -2.665249     2.765135
H     1.434918    -2.877334     2.096494
H    -3.014700    -1.775739    -3.207381
O    -2.594427    -0.889070    -3.136840
H    -3.248454    -0.242926    -3.457556
H    -3.198068     4.992869     1.106458
O    -3.980567     5.367435     0.654092
H    -4.396872     5.921791     1.362560
H     0.872903     2.270069     2.610212
O     0.973947     2.273438     1.639132
H     1.699152     1.649554     1.468497
H     0.121791     5.608247    -0.769511
O     0.642926     6.285119    -1.273067
H     0.826688     7.045289    -0.667718
H     0.332345     7.051781     2.621895
O    -0.025311     6.680721     1.798286
H     0.633209     6.003889     1.539163
H    -2.482633     0.227511     3.349874
O    -2.703907    -0.587770     3.852866
H    -1.942871    -0.629165     4.473744
H    -0.897095     0.558426     6.036141
O    -0.622070     0.043135     5.259457
H     0.091903    -0.561220     5.543607
H     0.712920    -4.973923     1.972279
O     0.170887    -5.087013     2.776508
H     0.316756    -6.008389     3.045315
H    -2.111626    -8.065938     0.429561
O    -1.790095    -7.580751     1.216829
H    -2.576866    -7.271253     1.673229
H    -0.558041     6.917872    -2.242819
O    -1.267446     7.358613    -2.769382
H    -2.061713     7.225867    -2.199538
H    -1.119022     4.336585     0.592816
O    -0.749893     4.402657    -0.304653
H    -1.454786     4.149280    -0.936532
H    -4.414531     2.756571     3.524133
O    -4.413026     2.924419     4.489278
H    -4.495538     2.039893     4.895588
H     2.025413    -3.568682     4.240973
O     1.962057    -4.043522     5.092883
H     2.468941    -3.508516     5.725017
H     4.689134    -3.166679     0.837090
O     4.528263    -3.088924    -0.128922
H     3.669461    -2.611025    -0.211257
H    -2.722975    -0.720292    -1.345499
O    -3.051492    -0.454085    -0.470052
H    -3.852143     0.071511    -0.676020
H    -1.615758    -0.720270    -4.625063
O    -1.111190    -0.503642    -5.429664
H    -0.402579     0.096218    -5.145101
H     1.795051    -1.675190    -3.374253
O     1.885715    -0.932460    -2.746501
H     1.109769    -0.352864    -2.877850
H     3.664187    -3.101147     2.548969
O     4.623565    -3.328796     2.476225
H     4.679077    -4.289439     2.598701
H     3.430417    -6.102424     3.111501
O     3.785962    -5.898390     2.212087
H     3.048270    -5.551586     1.670035
H    -3.344185     1.646556    -4.165524
O    -4.191355     1.177556    -3.977238
H    -4.407570     1.318086    -3.019910
H    -5.091027     4.167127     0.088092
O    -5.528150     3.301093    -0.017236
H    -6.458515     3.419245    -0.299982
H     6.732877    -1.144453    -1.358511
O     5.963130    -0.998367    -0.802316
H     5.543484    -1.866810    -0.610827
H     4.595309    -3.130224    -2.472121
O     3.726911    -2.959512    -2.886973
H     3.731265    -3.574588    -3.645957
H     4.434813    -2.282209     5.622851
O     4.092680    -2.750439     6.414853
H     4.428270    -3.654963     6.329865
H    -0.762508     6.346032     5.104378
O    -1.359648     6.919881     5.644031
H    -1.374000     7.798283     5.205786
H     4.695533    -0.098999    -1.458486
O     3.929434     0.444983    -1.719128
H     3.237665    -0.153077    -2.053991
H    -0.861797     4.485171    -4.018948
O    -1.635323     5.052872    -4.192544
H    -1.444762     5.916659    -3.783760
H     0.676314     3.141642    -2.664573
O     0.640040     3.507794    -3.572869
H     0.714726     2.716813    -4.124945
H    -5.380314    -5.178942     1.784948
O    -4.683057    -5.771951     1.428084
H    -3.842903    -5.355918     1.699817
H     7.880889    -1.642435    -4.030414
O     7.623049    -1.332811    -3.129636
H     7.135005    -0.488470    -3.283224
H     3.704219    -5.025036    -5.298450
O     4.466859    -4.653138    -4.816469
H     4.851425    -5.365543    -4.272750
H    -3.786684     0.024517     4.943002
O    -4.387847     0.485989     5.577419
H    -5.047439    -0.173886     5.866709
H     3.468153    -5.911322    -0.531152
O     4.341100    -5.662751    -0.847202
H     4.416171    -4.700562    -0.701202
H     4.997729    -0.288974    -4.152788
O     4.465990    -1.002067    -4.545228
H     4.138722    -1.586000    -3.828761
H    -1.169463     1.615659    -3.922408
O    -1.826597     2.231715    -4.304401
H    -1.466629     2.573390    -5.145483
H     4.889227    -6.283837    -2.327130
O     5.222058    -6.606400    -3.193722
H     6.040888    -7.086453    -3.008646
H     8.743287    -5.047999    -2.926715
O     8.052793    -5.468554    -2.369439
H     8.088183    -6.425412    -2.475086
H     2.341847     4.734285     0.489774
O     1.746018     4.725314     1.247899
H     1.392448     3.802228     1.326882
H    -4.415339    -2.626873     4.230885
O    -5.309663    -2.287148     4.030108
H    -5.173462    -1.504481     3.456526
H    -5.845361    -3.180039     1.314914
O    -6.307797    -3.739460     1.981649
H    -6.119507    -3.306636     2.833514
H     1.680580     3.474532     6.881753
O     1.057431     3.992499     6.350282
H     0.273808     4.141066     6.922223
H     5.000343    -2.150855     3.617723
O     5.019978    -1.434780     4.284425
H     4.207853    -0.878731     4.129052
H     2.393388    -5.564452     4.828685
O     2.774450    -6.447106     4.566335
H     2.030105    -7.028695     4.389513
H     2.259496    -4.466583    -6.796352
O     2.090645    -4.957737    -5.982311
H     1.824965    -4.268432    -5.324910
H     6.441562    -4.069360    -0.508567
O     7.194738    -4.473870    -0.046367
H     7.702634    -4.893347    -0.768627
H    -1.732846     4.489028     7.723974
O    -0.833940     4.587404     8.109355
H    -0.654500     5.546552     8.137373
H    -5.125573     5.733368    -5.572009
O    -4.515476     4.972150    -5.590434
H    -3.756579     5.189466    -6.154069
H     3.281773    -2.471609    -8.436264
O     3.195635    -3.008910    -7.637883
H     4.071700    -2.982898    -7.207929
H    -0.688676     8.885647    -2.153979
O    -0.539725     9.752215    -1.709587
H     0.153568     9.581562    -1.053934
H     2.064633    -0.901824     5.216596
O     1.492094    -1.429434     5.802800
H     1.586610    -1.087247     6.701068
H     5.205746    -1.974402    -5.690738
O     5.552337    -2.738733    -6.215754
H     5.279447    -3.530537    -5.700734
H     5.697741    -5.198751     4.677592
O     5.175596    -5.117096     5.504738
H     4.454666    -5.749457     5.416934
H    -3.978050     1.145835     7.019012
O    -3.786363     1.619842     7.864085
H    -4.663010     2.003079     8.126369
H    -1.859946     9.642303    -0.707580
O    -2.719621     9.514563    -0.234151
H    -3.332143     10.141830    -0.621961
H    -5.955903     4.717982    -2.915474
O    -6.864094     4.600235    -3.260678
H    -6.772767     3.899550    -3.939785
H     0.099324    -7.034907    -1.157745
O     0.563826    -7.473030    -0.411434
H    -0.115239    -7.670254     0.236794
H    -7.644069     3.815447    -1.954056
O    -7.904607     3.226436    -1.215426
H    -7.760957     2.318618    -1.557546
H     3.971206    -0.884857     6.991947
O     3.979292     0.079386     6.986479
H     4.791161     0.370972     6.555184
H     2.237893     5.703507    -1.142846
O     3.186191     5.482895    -1.013546
H     3.403497     4.836102    -1.719885
H     6.553860    -5.899704     0.661008
O     6.186260    -6.638054     1.192797
H     5.281266    -6.362724     1.419948
H    -3.876461     4.726659     7.804360
O    -3.309247     4.267076     7.143592
H    -3.501220     3.322923     7.251044
H     5.767770    -7.914637     0.120838
O     5.480511    -8.600445    -0.518378
H     4.651189    -8.274375    -0.911926
H    -0.562449     2.042567     7.708209
O    -1.195708     1.981422     6.972904
H    -2.063862     1.836235     7.368905
H    -6.385628    -0.105527     1.070621
O    -6.706121    -0.185059     0.157483
H    -7.624134    -0.458361     0.174460
H    -5.371344    -3.041372    -0.589563
O    -5.120978    -2.340930     0.038981
H    -5.690972    -1.567880    -0.147349
H     4.316141     5.594788     0.361564
O     4.652974     5.711935     1.264185
H     3.950118     6.208149     1.717313
H    -9.045170    -1.720655    -2.250234
O    -8.498074    -1.520640    -1.463287
H    -8.623942    -2.259883    -0.828295
H    -5.530307     3.508743    -5.509124
O    -6.047282     2.797904    -5.094653
H    -5.379707     2.210782    -4.683936
H     3.179571    -0.842016    -5.649464
O     2.324658    -0.963411    -6.116775
H     2.411070    -1.811091    -6.591883
H     8.112240    -1.296005    -6.024926
O     8.122049    -2.161926    -5.571850
H     7.265922    -2.561600    -5.823119
H     7.616091     1.044246    -6.297200
O     7.428979     0.197305    -6.714635
H     6.447615     0.146607    -6.750414
H    -7.859760    -3.677185     0.926686
O    -8.538583    -3.568972     0.242902
H    -8.439243    -4.326220    -0.361406
H    -2.419082     8.757056     1.328573
O    -2.267479     8.166029     2.079297
H    -1.497299     7.613678     1.854573
H    -4.454010     6.446144     3.526862
O    -4.624351     6.874898     2.671637
H    -3.861740     7.462143     2.534249
H     3.451296     3.476895    -3.561208
O     3.772109     4.383792    -3.356175
H     3.189008     5.019950    -3.815897
H    -6.116873    -1.574636    -3.438578
O    -6.199845    -2.156242    -2.656291
H    -6.983901    -1.851054    -2.146850
H     6.463496     1.066688     4.751415
O     6.069005     1.603621     5.455682
H     6.257080     2.522976     5.167236
H     1.346754     1.761998    -5.810085
O     1.146299     1.157238    -5.065731
H     1.523636     0.300538    -5.335395
H    -2.495397     2.954581     10.501784
O    -2.281976     2.048156     10.225671
H    -2.879429     1.849868     9.492700
H     7.624794    -0.474352     3.090113
O     6.874606     0.100012     3.262682
H     6.182718    -0.502799     3.638722
H    -5.654141    -8.031298    -0.717369
O    -4.919488    -8.101506    -0.070939
H    -4.923711    -7.285612     0.453201
H    -5.179993    -0.082527    -4.706957
O    -5.796885    -0.794102    -4.948195
H    -6.635216    -0.352694    -5.145691
H     1.885673    -0.147481    -7.507345
O     1.683448     0.325137    -8.350625
H     2.261827    -0.077409    -9.003843
H     4.870279    -1.333155    -9.299521
O     3.944835    -1.105194    -9.581603
H     3.924965    -1.220888    -10.530880
H     7.563056    -2.551124     4.200487
O     7.710223    -2.583735     3.240969
H     7.217618    -3.373984     2.966031
H     6.723329    -5.870605     2.674182
O     6.784508    -5.198063     3.378022
H     7.660681    -5.283592     3.795007
H    -1.833572     8.961417     3.533476
O    -1.584129     9.264466     4.431724
H    -2.432235     9.393813     4.889623
H    -7.394804     1.603554    -5.236877
O    -7.968993     0.858203    -4.994123
H    -8.871168     1.256314    -4.917174
H     6.923176    -1.023231    -8.398913
O     6.343033    -1.744789    -8.665315
H     6.114877    -2.196910    -7.834612
H    -1.677889     6.286604    -6.991844
O    -2.088198     5.468762    -6.714134
H    -1.814591     5.322897    -5.760263
H    -0.005550     3.309607     9.042373
O     0.192658     2.389452     9.294876
H    -0.605465     2.122640     9.800259
H     6.755386    -2.737625    -2.705509
O     6.226419    -3.483900    -2.366289
H     6.695367    -4.293230    -2.616441
H    -4.077918    -3.035226    -4.944324
O    -4.233282    -2.920347    -5.908686
H    -4.779992    -2.126816    -5.962537
H     1.974905     2.185899     8.480664
O     2.638272     2.301626     7.790675
H     3.061811     1.432301     7.672561
H    -6.905891    -5.177566    -1.402570
O    -7.821338    -5.447061    -1.648894
H    -7.955133    -5.042043    -2.530718
H    -3.836184     5.261546     5.722147
O    -3.803612     6.032107     5.133935
H    -2.869940     6.326505     5.229516
H    -7.888517     0.112828    -1.956879
O    -7.400280     0.838900    -2.367950
H    -7.627623     0.829897    -3.321441
H     5.833110     0.163194     0.420433
O     5.610300     0.880504     1.046068
H     6.122203     0.681914     1.856858
H    -6.221704     3.309023     7.415745
O    -6.093218     2.788744     8.242930
H    -6.692383     2.026767     8.152332
H     2.282240    -8.042351    -0.859199
O     2.959809    -8.027458    -1.554829
H     2.735414    -8.739497    -2.170447
H    -2.744396    -3.918664    -6.200241
O    -1.991204    -4.485945    -5.969664
H    -1.714188    -4.195745    -5.072243
H    -5.650581     3.766207     5.330129
O    -6.299960     4.160616     5.948450
H    -6.137431     5.104848     5.937782
H    -1.014868    -7.079039    -3.176298
O    -0.543158    -6.410935    -2.645469
H     0.364133    -6.338810    -3.026442
H     4.439539     2.032008     5.143493
O     3.497993     2.272868     5.024774
H     3.113671     2.283163     5.906720
H     4.102973     4.668944     6.324154
O     4.180885     5.401795     5.708866
H     3.614481     5.161272     4.937243
H     2.758271     3.635196     3.944672
O     2.579896     4.575544     3.779722
H     2.457455     4.673985     2.813765
H     9.389371     0.248281    -1.062423
O     8.585875     0.409943    -0.564340
H     8.408714    -0.412014    -0.077004
H    -2.109069     5.313738     10.676380
O    -2.830492     4.683902     10.905760
H    -3.048802     4.857808     11.821589
H     7.972324    -2.976782     0.326543
O     8.393764    -2.131213     0.584686
H     8.327000    -2.128827     1.546878
H     5.364929     3.684218     3.546226
O     6.020882     3.951052     4.212389
H     5.606355     4.666221     4.716347
H    -4.217099     5.016094     9.809665
O    -4.850285     5.168637     9.088056
H    -5.461388     4.419373     9.083363
H    -7.011006    -3.447412    -3.486623
O    -7.631058    -4.058450    -3.936805
H    -7.109404    -4.497944    -4.640300
H     0.018737     6.123411     10.798935
O    -0.845921     6.455284     10.552558
H    -0.730322     6.888440     9.687588
H     2.557945     1.532460    -4.094740
O     3.427889     1.903278    -3.861358
H     3.769389     1.393033    -3.099660
H    -6.975148    -0.219708     7.228885
O    -7.484447     0.557569     7.511484
H    -8.108102     0.741993     6.808067
H    -2.736661    -9.846848    -0.850350
O    -2.674405    -8.904674    -1.007339
H    -3.580571    -8.539704    -0.765681
H    -10.075498     3.108432    -4.878642
O    -10.191966     2.190001    -4.600947
H    -10.407509     2.270489    -3.650909
H    -2.067914    -3.013480     4.614252
O    -2.942619    -3.454289     4.682797
H    -2.935887    -4.069737     3.924465
H    -0.173513    -7.963338     2.470201
O     0.652589    -7.753869     2.919088
H     1.371216    -8.046879     2.331222
H     6.704794    -2.362219     6.393933
O     7.155328    -3.070309     5.928901
H     6.525954    -3.805512     5.887616
H    -5.273187    -2.001757     6.947312
O    -5.950001    -1.502659     6.465121
H    -5.933439    -1.876864     5.554688
H     0.832864     3.084804    -7.092630
O     1.749475     2.753018    -7.156197
H     1.731074     2.005982    -7.782106
H    -3.966284     8.761287     6.708200
O    -3.961759     8.761481     5.750841
H    -4.088080     7.834716     5.480825
H    -2.069513     10.346187    -2.704111
O    -2.973944     10.531290    -2.993291
H    -2.910146     11.161742    -3.710137
H     9.411203    -4.038180     4.039966
O     9.132966    -4.718178     4.661190
H     8.702556    -4.248223     5.386344
H    -0.732963    -5.953448    -5.849071
O    -0.028818    -6.520543    -5.517954
H     0.806141    -6.057092    -5.734122
H     1.899682     8.236850     0.704537
O     1.563055     8.555977    -0.168073
H     2.371568     8.627920    -0.706235
H     3.490295     2.974479    -6.644144
O     4.319354     2.693811    -6.230944
H     4.070989     2.420462    -5.320686
H     3.809366     7.042418    -1.302989
O     4.025315     7.972448    -1.558871
H     4.810413     7.863392    -2.132195
H     4.390159     0.052042    -7.902089
O     4.769084     0.194822    -7.032951
H     4.586001     1.125159    -6.783240
H     6.023584     1.969318    -0.466444
O     6.596194     2.164754    -1.221538
H     7.416261     1.677846    -1.026856
H     6.688414    -8.393755    -1.623640
O     7.324264    -8.180679    -2.359587
H     7.690698    -9.013973    -2.650513
H    -5.300004    -5.749726    -5.414999
O    -5.918142    -5.077602    -5.727681
H    -5.367704    -4.308012    -5.961981
H     0.673812     7.179322     7.631301
O    -0.227553     7.205617     7.991218
H    -0.783614     7.221358     7.174335
H    -8.898561    -2.802610    -4.100237
O    -9.419977    -1.995093    -3.930575
H    -9.134336    -1.328211    -4.558775
H    -2.407698    -5.956652    -2.152294
O    -3.286829    -5.671588    -2.419077
H    -3.473426    -6.042837    -3.306415
H    -2.985523    -5.858735    -5.417216
O    -3.584712    -6.470999    -4.947010
H    -3.101581    -7.291085    -4.783061
H    -1.399645     3.773332    -6.962319
O    -0.857734     3.018051    -6.695542
H    -1.094797     2.233997    -7.246286
H    -0.209842     0.469085    -8.205177
O    -1.107070     0.700718    -7.922625
H    -1.279492     0.177323    -7.123825
H    -10.430558     4.078947    -2.711848
O    -10.497493     3.299051    -2.145362
H    -9.667646     3.271297    -1.637379
H     4.580678     4.104234     1.744994
O     4.369197     3.184664     2.022083
H     5.080907     2.606059     1.734997
H     6.478635     1.444052    -4.208547
O     6.178300     0.817486    -3.514939
H     6.203470     1.314419    -2.671858
H     9.631212    -2.187629    -0.928980
O     9.907543    -1.970409    -1.828162
H     9.106724    -1.630864    -2.270445
H     9.968218    -3.275515    -3.101124
O     9.702250    -3.925877    -3.778160
H     9.307288    -3.416426    -4.496491
H    -7.694364    -8.549285    -1.681588
O    -6.957011    -7.953998    -1.808272
H    -7.335307    -7.041285    -1.795807
H     6.031572     7.196025    -4.162465
O     6.140240     7.135273    -3.209066
H     6.380994     6.201065    -3.053684
H     0.101410    -8.127285    -5.231011
O     0.126130    -9.110695    -5.102232
H     0.277089    -9.471414    -5.975974
H    -2.328030    -8.640301    -2.732491
O    -2.095309    -8.373965    -3.641534
H    -1.447526    -8.990156    -4.002108
H     2.189392    -10.776932    -3.519645
O     2.142557    -9.822532    -3.492094
H     1.357149    -9.550481    -4.017706
H     6.847236     3.369429    -4.546742
O     6.889819     2.697154    -5.258912
H     6.092658     2.839456    -5.790812
H    -3.563267    -3.721416     7.719305
O    -3.678150    -2.931951     7.191851
H    -3.426983    -3.168011     6.272641
H    -0.639542    -3.314657    -6.725492
O    -0.009414    -2.583297    -6.730949
H    -0.490869    -1.808651    -6.386205
H     0.638561     0.463198     8.763645
O     0.646951    -0.249105     8.120379
H    -0.274762    -0.539438     8.032108
H    -5.847228     7.402412    -4.219581
O    -6.349503     6.785025    -4.782319
H    -6.634747     6.051021    -4.193896
H    -4.291664     9.136660    -3.224139
O    -4.827207     8.339896    -3.123285
H    -4.426352     7.858611    -2.381418
H    -9.721621     5.829562    -4.618152
O    -10.254202     5.024070    -4.456363
H    -11.134815     5.224430    -4.775479
H     2.759753     6.527254     6.168376
O     1.799330     6.624043     6.263843
H     1.456534     5.710125     6.161897
H     4.793237     8.567483     0.078013
O     5.092673     8.580832     1.003176
H     5.507218     7.722442     1.153136
H     4.145883    -7.381533    -4.356547
O     3.388350    -7.666088    -4.899751
H     3.108856    -8.508094    -4.525446
H     0.367125     8.674365     4.268614
O     1.047088     8.032955     4.037737
H     1.273646     7.536619     4.850789
H     5.448671     4.261802    -3.209769
O     6.428444     4.262941    -3.100557
H     6.590919     3.638189    -2.372232
H    -2.578319    -1.542074     7.578080
O    -2.069237    -0.748666     7.800553
H    -2.696035    -0.124634     8.176715
H    -9.040286     7.968374    -4.111894
O    -8.976662     7.386561    -4.870751
H    -8.019491     7.223227    -5.006409
H     3.536063    -8.952172     1.071243
O     2.858656    -8.322565     1.323575
H     3.332269    -7.517143     1.604989
H     3.567172     8.201863     1.865658
O     2.778887     7.635490     1.970424
H     2.325954     7.866864     2.795011
N     2.218359     6.660195    -3.949500
H     2.734285     7.222208    -3.351487
H     1.489692     6.353887    -3.395054
