33

H    -5.004654     5.718291    -5.615183
O    -4.438152     4.915943    -5.665105
H    -3.655112     5.115368    -6.210244
H    -5.905212     4.609223    -2.963208
O    -6.814878     4.517010    -3.320674
H    -6.696171     3.809373    -3.985607
H    -5.303255     3.436349    -5.596998
O    -5.885821     2.692978    -5.318317
H    -5.270199     2.079732    -4.862005
H    -5.168601    -0.169680    -4.664118
O    -5.741721    -0.901895    -4.951322
H    -6.602436    -0.496399    -5.135705
H    -7.487943     1.480323    -5.310837
O    -8.031517     0.759428    -4.964095
H    -8.904712     1.221182    -4.774484
H    -7.868707     0.004619    -1.882464
O    -7.389882     0.737429    -2.298782
H    -7.617179     0.734227    -3.250772
H    -9.935046     3.054548    -4.853082
O    -10.149566     2.201093    -4.447886
H    -10.345568     2.445151    -3.509222
H    -5.738342     7.370988    -4.278869
O    -6.231336     6.768135    -4.875696
H    -6.536946     6.037799    -4.285446
H    -9.742889     6.022713    -4.207134
O    -10.337306     5.291032    -3.945758
H    -11.197055     5.548367    -4.285586
H    -8.889813     8.255592    -4.226936
O    -8.897995     7.549420    -4.880238
H    -7.946770     7.357769    -5.022036
N    -8.325708     3.774915    -6.548191
H    -8.580748     3.698782    -7.471907
H    -7.456879     3.355112    -6.499508
