18

H     7.816323    -1.724857    -4.171830
O     7.620316    -1.389925    -3.264155
H     7.102003    -0.554557    -3.406369
H     9.467833     0.559952    -0.709189
O     8.571069     0.584939    -0.333719
H     8.365324    -0.323530    -0.073753
H     7.949221    -3.135317     0.297614
O     8.411034    -2.293568     0.513578
H     8.380540    -2.287431     1.482177
H     9.599018    -2.346210    -1.052513
O     9.887478    -2.160598    -1.963892
H     9.098058    -1.733700    -2.370953
H     9.907255    -3.508238    -3.325824
O     9.672305    -4.154103    -4.018018
H     9.187551    -3.640821    -4.679409
N     11.094624     0.270689    -1.582515
H     11.927806     0.251557    -1.104908
H     10.886937    -0.666892    -1.784640
