33
Coordinates from ORCA-job grain_mol_opt.QMRegion
  H   -3.13196491310505      6.23177320323934     -0.29081751020278
  O   -3.04327124701831      6.83267796720473     -1.06621166758276
  H   -2.98539774705524      7.74119272025348     -0.72244753398858
  H   -3.91923609308962      5.91017407053529     -2.55373214344303
  O   -4.25910896732596      5.06415596781386     -2.89070410545894
  H   -4.06349622941131      5.02880482622953     -3.84835333307290
  H   -3.21751486114389      4.85867303904343      1.32098682003057
  O   -4.00161328471268      5.25048862110733      0.87461976736770
  H   -4.34074618061242      5.84726624988817      1.59312635299429
  H   -5.20623629374770      4.10505796155314      0.17098711221555
  O   -5.62754238588647      3.24170438744867      0.01655814425114
  H   -6.56166488117364      3.33235789863861     -0.27376870778348
  H   -1.77790026252625      9.62823273856851     -0.78865411535898
  O   -2.60619571343378      9.46624317185333     -0.26125823560675
  H   -3.23433733073351     10.11372169725465     -0.59339442419525
  H   -5.96441384711606      4.65924840308258     -2.91285489069566
  O   -6.86373502887754      4.52689970149657     -3.28655413806200
  H   -6.72928372520125      3.79809465598861     -3.93487992855883
  H   -2.24318596652875      8.79030733971172      1.33288352963351
  O   -2.15982683336810      8.14927923647512      2.06021752400838
  H   -1.36842511121441      7.60943873765729      1.86100119087827
  H   -4.42468618470942      6.58990986995031      3.61295519375103
  O   -4.58745618888139      7.01771873723587      2.74853301287746
  H   -3.73955009983783      7.47468769332401      2.56934999203735
  H   -5.86907603203884      7.36868934906602     -4.27037172228286
  O   -6.36011420542469      6.74875170571487     -4.84068301086583
  H   -6.62436022799601      6.00198420357651     -4.25480383525288
  H   -4.21408210355203      9.09486219367752     -3.10705895180674
  O   -4.85134317766316      8.36564928281642     -3.08349980153555
  H   -5.20778926303366      8.35610218816795     -2.17953573302864
  O   -5.85468872945075      7.54237128854365     -0.51126314043413
  H   -6.04043199685213      7.82839982567574      0.38882845909471
  H   -5.03844391945775      7.02785059444807     -0.43060945627109
