12
Coordinates from ORCA-job grain_mol_opt.QMRegion
  H   -10.00910825687426      2.99206774605068     -5.01734907493906
  O   -10.27537130949823      2.12494486784122     -4.66878591668217
  H   -10.26283222955616      2.30670088431392     -3.70442949532929
  H   -10.07162241525878      4.18788168399961     -2.85029399627394
  O   -10.35488703628173      3.48269064103287     -2.23713557255546
  H   -9.59107045452025      3.37660043577915     -1.63427959406663
  H   -9.64595022577665      5.85646106681325     -4.78526123392198
  O   -10.01226143548814      4.96495578685720     -4.61263854786612
  H   -10.97951949401315      5.05307733476712     -4.63816686628780
  O   -12.68766268611151      4.00328382281733     -4.13203397851067
  H   -12.44658142627594      3.90413379190739     -3.20134320547384
  H   -12.33962477571561      3.18675310003353     -4.51908939553248
