603

H     0.189930     3.032985    -0.693755
O     0.714375     2.365730    -1.186360
H     1.652556     2.495112    -0.910370
H    -0.088696    -1.300116     3.140717
O     0.302937    -0.599997     2.595853
H    -0.176074     0.213063     2.827759
H    -2.409717     2.409032    -0.556297
O    -2.199326     1.940603     0.268611
H    -2.213877     0.992130     0.045720
H    -4.676330     0.546482     2.160547
O    -4.992460    -0.387037     2.173749
H    -4.485643    -0.865213     1.509257
H     0.053520    -0.304860     0.940428
O    -0.142521    -0.068943     0.012944
H     0.196714     0.827658    -0.107516
H    -0.165452    -3.569547     3.770954
O    -0.446012    -2.738946     4.189351
H     0.198241    -2.566832     4.892503
H    -4.900749     2.528943     1.304716
O    -4.262064     2.121344     1.921405
H    -3.418104     2.103704     1.410894
H    -3.262545     3.890892    -2.234665
O    -2.521831     3.299467    -2.003471
H    -2.160955     3.010075    -2.861828
H    -0.130110    -3.801761     0.496585
O     0.208002    -2.982926     0.913383
H    -0.580529    -2.497423     1.223689
H    -2.389229    -1.535689     2.455465
O    -2.198083    -2.002427     1.615372
H    -2.455789    -1.416594     0.884696
H     2.067670    -1.439897    -1.127127
O     2.298029    -1.690898    -0.208917
H     1.508823    -2.119303     0.174095
H    -1.404818     1.828620     1.894958
O    -1.498996     1.431711     2.770948
H    -1.486342     2.144431     3.435639
H     0.205640    -2.702375    -1.578134
O    -0.550151    -2.091092    -1.635220
H    -0.372844    -1.364440    -1.001100
H    -3.441457    -2.927846    -0.405858
O    -2.722470    -3.419087    -0.824665
H    -2.012719    -2.787740    -1.041964
H     2.757615     0.138839     2.926640
O     2.855145    -0.042421     3.888688
H     2.944631     0.850968     4.292606
H    -3.547975     6.377231    -0.570541
O    -3.312649     7.039391    -1.273560
H    -3.168281     7.884229    -0.802914
H     3.889772     0.592712     1.180520
O     2.939092     0.410323     1.294580
H     2.704056    -0.343463     0.716080
H    -5.788548     0.834972    -1.628318
O    -4.878822     1.164971    -1.503087
H    -4.991372     1.993039    -0.991497
H    -1.232342     5.401125     2.189031
O    -1.856355     4.653363     2.071224
H    -1.935441     4.235193     2.933957
H     3.479988     2.770314     0.415952
O     3.233409     2.725948    -0.523568
H     3.568075     1.883423    -0.872346
H     1.492242    -4.695621    -2.253744
O     1.554431    -3.917215    -1.681876
H     2.349415    -3.455847    -2.031796
H    -0.925493    -0.087503    -2.561371
O    -0.293430     0.566750    -2.885981
H    -0.033721     1.149470    -2.149094
H     1.696167    -4.681217    -0.182092
O     1.802678    -5.317124     0.561523
H     1.340852    -6.129332     0.265804
H    -1.226420    -3.268837    -2.889747
O    -1.050607    -3.952453    -3.549581
H    -0.924101    -4.798860    -3.079548
H    -2.802937     3.314232     4.682777
O    -1.821578     3.312862     4.650255
H    -1.529803     2.912652     5.487679
H     0.938300     5.043806     4.059085
O    -0.008240     5.274777     4.108054
H    -0.479578     4.471559     4.367145
H    -1.733159    -4.650853    -0.380848
O    -0.967756    -5.190070    -0.093754
H    -1.315413    -5.876682     0.484782
H    -3.931855     5.822020    -2.620868
O    -4.291534     4.993658    -2.955907
H    -4.122142     4.954156    -3.921611
H    -2.438762    -3.687262     1.924331
O    -2.456648    -4.591041     2.301046
H    -1.516869    -4.827688     2.443905
H    -4.695815    -2.986627    -2.915816
O    -3.842164    -3.218399    -3.320201
H    -3.511136    -4.011352    -2.853689
H     0.319746     1.386110     4.601497
O     0.824888     2.146683     4.267352
H     0.871953     2.806361     4.973698
H    -4.654987    -5.175273    -1.585049
O    -5.358022    -4.821505    -1.013022
H    -5.146438    -5.174909    -0.128072
H     2.332811    -6.481824    -4.038952
O     1.993831    -6.152144    -3.186538
H     2.427600    -6.724657    -2.521690
H     0.469142    -3.381308    -4.012464
O     1.271949    -3.013431    -4.434661
H     0.953458    -2.643957    -5.284423
H     1.951419    -1.744042     2.975662
O     2.108181    -2.674946     2.759582
H     1.423668    -2.890332     2.091788
H    -3.016347    -1.814910    -3.224975
O    -2.596207    -0.927069    -3.161002
H    -3.252487    -0.284030    -3.482639
H    -3.207802     4.976616     1.054375
O    -3.988485     5.349583     0.597332
H    -4.405995     5.906853     1.303343
H     0.858845     2.260706     2.577343
O     0.961596     2.255041     1.606251
H     1.689778     1.632571     1.444396
H     0.175280     5.658929    -0.777521
O     0.695053     6.321460    -1.287462
H     0.837250     7.121463    -0.731782
H     0.319710     7.042526     2.569934
O    -0.040238     6.660987     1.751995
H     0.624900     5.990386     1.493305
H    -2.496040     0.219162     3.324002
O    -2.717326    -0.594707     3.829244
H    -1.958026    -0.632168     4.452624
H    -0.915315     0.563380     6.010618
O    -0.638987     0.043620     5.237165
H     0.074536    -0.558820     5.526076
H     0.703191    -4.988337     1.975768
O     0.159594    -5.097354     2.779395
H     0.304886    -6.017425     3.053083
H    -2.118977    -8.087694     0.442455
O    -1.798414    -7.598136     1.227424
H    -2.585833    -7.287558     1.681994
H    -0.393689     6.863341    -2.346831
O    -1.140967     7.281226    -2.847698
H    -1.930631     7.154039    -2.284277
H    -1.129223     4.311576     0.554695
O    -0.755646     4.372852    -0.341226
H    -1.460532     4.128306    -0.974006
H    -4.429088     2.748936     3.483338
O    -4.428880     2.920794     4.447506
H    -4.512221     2.038300     4.857927
H     2.011430    -3.571803     4.240288
O     1.946743    -4.043076     5.093936
H     2.451949    -3.504996     5.724882
H     4.680823    -3.185612     0.839350
O     4.522010    -3.111179    -0.127556
H     3.662590    -2.635274    -0.213015
H    -2.728851    -0.750947    -1.368017
O    -3.057741    -0.479272    -0.494713
H    -3.859304     0.043853    -0.703393
H    -1.617042    -0.766431    -4.645671
O    -1.109631    -0.549763    -5.449043
H    -0.400275     0.046948    -5.163085
H     1.793353    -1.714663    -3.384032
O     1.883520    -0.966484    -2.762150
H     1.105587    -0.390911    -2.895372
H     3.652830    -3.112074     2.548857
O     4.612269    -3.339887     2.477559
H     4.668014    -4.299791     2.605861
H     3.418657    -6.110805     3.125042
O     3.775635    -5.910619     2.225164
H     3.038608    -5.566686     1.680594
H    -3.348245     1.604716    -4.198261
O    -4.196197     1.138255    -4.010154
H    -4.412838     1.279540    -3.052370
H    -5.096752     4.146266     0.042295
O    -5.531450     3.278876    -0.065702
H    -6.464195     3.393817    -0.341107
H     6.728352    -1.173650    -1.361447
O     5.954570    -1.024086    -0.811750
H     5.536537    -1.892165    -0.613498
H     4.592233    -3.164369    -2.470623
O     3.724933    -2.994575    -2.888458
H     3.730418    -3.614620    -3.643592
H     4.418123    -2.278757     5.620157
O     4.074336    -2.743668     6.413260
H     4.410656    -3.648367     6.333428
H    -0.780594     6.346205     5.053081
O    -1.379000     6.921907     5.589313
H    -1.392646     7.798472     5.147043
H     4.691599    -0.130276    -1.470371
O     3.923934     0.410758    -1.735406
H     3.232898    -0.191355    -2.065606
H    -0.752688     4.518867    -4.057134
O    -1.535599     5.061834    -4.265768
H    -1.382903     5.929083    -3.845003
H     0.650237     3.203830    -2.673728
O     0.656892     3.579296    -3.582939
H     0.708262     2.814884    -4.166916
H    -5.390245    -5.195207     1.779143
O    -4.692177    -5.789382     1.425649
H    -3.852675    -5.372254     1.697483
H     7.880582    -1.684420    -4.030309
O     7.620778    -1.370204    -3.131560
H     7.133203    -0.527191    -3.290038
H     3.706475    -5.072910    -5.289403
O     4.467603    -4.697751    -4.807617
H     4.852135    -5.407578    -4.260250
H    -3.803090     0.022714     4.915779
O    -4.405280     0.487264     5.546472
H    -5.065270    -0.171086     5.838452
H     3.462489    -5.936783    -0.517862
O     4.335283    -5.688959    -0.834995
H     4.410357    -4.726419    -0.692314
H     4.998231    -0.333601    -4.163805
O     4.464011    -1.045751    -4.553722
H     4.137783    -1.628921    -3.835725
H    -1.178798     1.567627    -3.952315
O    -1.828928     2.187535    -4.340218
H    -1.469764     2.517047    -5.186819
H     4.886360    -6.317367    -2.310891
O     5.221138    -6.642897    -3.175563
H     6.039260    -7.122844    -2.986805
H     8.741282    -5.083796    -2.909068
O     8.049355    -5.501472    -2.351481
H     8.085364    -6.458920    -2.452054
H     2.321986     4.725058     0.437021
O     1.740472     4.708024     1.206472
H     1.384856     3.787086     1.285674
H    -4.429566    -2.631429     4.215073
O    -5.323610    -2.293356     4.010609
H    -5.186920    -1.512764     3.434456
H    -5.854599    -3.198158     1.299570
O    -6.317487    -3.755049     1.967761
H    -6.131400    -3.318245     2.818139
H     1.660244     3.482673     6.848177
O     1.037622     3.996734     6.312482
H     0.253501     4.149664     6.882685
H     4.987185    -2.156180     3.615175
O     5.005681    -1.436861     4.278223
H     4.193384    -0.881918     4.119537
H     2.378806    -5.564965     4.837720
O     2.760359    -6.448642     4.579443
H     2.016332    -7.031373     4.405072
H     2.263695    -4.520435    -6.792957
O     2.093763    -5.007774    -5.976884
H     1.827268    -4.316100    -5.322808
H     6.435209    -4.094379    -0.499405
O     7.188226    -4.495663    -0.034322
H     7.697222    -4.918955    -0.753594
H    -1.754234     4.501180     7.679550
O    -0.855905     4.600983     8.065871
H    -0.676461     5.560397     8.089794
H    -5.114866     5.684596    -5.633124
O    -4.513571     4.915792    -5.649038
H    -3.753766     5.127824    -6.212645
H     3.288488    -2.533058    -8.440513
O     3.199805    -3.064144    -7.638271
H     4.075788    -3.038771    -7.208154
H    -0.676561     8.825724    -2.304276
O    -0.557505     9.655133    -1.786151
H     0.204557     9.483169    -1.208041
H     2.048337    -0.900392     5.204161
O     1.475004    -1.426129     5.791121
H     1.566871    -1.079632     6.688098
H     5.207295    -2.024029    -5.694031
O     5.555205    -2.790599    -6.214385
H     5.281584    -3.580178    -5.696097
H     5.683225    -5.199511     4.690320
O     5.159541    -5.113853     5.516015
H     4.439080    -5.747037     5.430409
H    -3.998002     1.154133     6.986397
O    -3.807666     1.631670     7.829569
H    -4.684785     2.016549     8.088498
H    -1.872304     9.614015    -0.775064
O    -2.734367     9.484576    -0.304091
H    -3.344786     10.116726    -0.686627
H    -5.970756     4.697069    -2.979682
O    -6.873105     4.560570    -3.340044
H    -6.747125     3.847716    -4.006602
H     0.094314    -7.063540    -1.145626
O     0.557972    -7.497673    -0.396572
H    -0.121990    -7.692668     0.251434
H    -7.653343     3.773330    -1.993117
O    -7.908395     3.186903    -1.255671
H    -7.766765     2.278835    -1.599052
H     3.952173    -0.875563     6.982142
O     3.959580     0.088593     6.971321
H     4.772442     0.378736     6.540963
H     2.242718     5.799556    -1.197070
O     3.178212     5.508516    -1.080680
H     3.357212     4.967208    -1.872568
H     6.545987    -5.918972     0.678865
O     6.177339    -6.654998     1.212914
H     5.272163    -6.378606     1.438039
H    -3.898015     4.738811     7.755001
O    -3.329664     4.275866     7.097466
H    -3.522171     3.332376     7.209128
H     5.761059    -7.936637     0.146403
O     5.475106    -8.625050    -0.490571
H     4.646133    -8.301179    -0.886574
H    -0.583722     2.054992     7.677027
O    -1.215586     1.988698     6.940902
H    -2.084570     1.846616     7.336289
H    -6.395433    -0.124772     1.039491
O    -6.713721    -0.207970     0.125882
H    -7.631732    -0.481659     0.142207
H    -5.377985    -3.068438    -0.604629
O    -5.127324    -2.364156     0.019540
H    -5.698786    -1.592975    -0.170164
H     4.299828     5.586002     0.306996
O     4.631924     5.688666     1.212576
H     3.935956     6.198500     1.663013
H    -9.048985    -1.753909    -2.278129
O    -8.500644    -1.552160    -1.492280
H    -8.630107    -2.287373    -0.853466
H    -5.524239     3.457935    -5.559118
O    -6.046193     2.757183    -5.132543
H    -5.382231     2.166314    -4.720024
H     3.180044    -0.890444    -5.660983
O     2.325018    -1.011894    -6.128152
H     2.412383    -1.861619    -6.600068
H     8.115318    -1.346842    -6.026287
O     8.123731    -2.210035    -5.568362
H     7.268527    -2.611544    -5.819783
H     7.619254     0.992661    -6.311284
O     7.431960     0.143544    -6.723579
H     6.450773     0.092219    -6.761264
H    -7.868766    -3.697911     0.910303
O    -8.545306    -3.591911     0.224023
H    -8.446287    -4.352568    -0.375892
H    -2.430522     8.738767     1.263942
O    -2.280578     8.151201     2.017674
H    -1.508754     7.599141     1.797880
H    -4.469457     6.438078     3.467309
O    -4.637219     6.861674     2.609043
H    -3.875165     7.449775     2.471709
H     3.391649     3.447752    -3.589255
O     3.236482     4.416956    -3.497571
H     2.271793     4.480011    -3.607074
H    -6.119876    -1.614866    -3.462061
O    -6.201802    -2.192193    -2.676843
H    -6.988462    -1.886913    -2.170591
H     6.447999     1.066915     4.736255
O     6.052013     1.606317     5.437612
H     6.239532     2.524764     5.145650
H     1.358295     1.717541    -5.835345
O     1.162740     1.122828    -5.080481
H     1.528115     0.259779    -5.348087
H    -2.520994     2.979083     10.463331
O    -2.307036     2.071451     10.191475
H    -2.903539     1.869954     9.458623
H     7.612077    -0.481912     3.084344
O     6.861025     0.093132     3.250791
H     6.168957    -0.507440     3.630276
H    -5.659530    -8.059071    -0.710502
O    -4.925313    -8.125713    -0.063077
H    -4.931187    -7.307833     0.457926
H    -5.181466    -0.127697    -4.736080
O    -5.797169    -0.840398    -4.976058
H    -6.636642    -0.401023    -5.174056
H     1.891376    -0.204835    -7.523956
O     1.690311     0.265718    -8.368769
H     2.268393    -0.139791    -9.020487
H     4.877835    -1.398875    -9.306390
O     3.952879    -1.171395    -9.590465
H     3.934302    -1.291442    -10.539274
H     7.549186    -2.553187     4.203750
O     7.697397    -2.590348     3.244510
H     7.205733    -3.382438     2.973160
H     6.712512    -5.880589     2.692211
O     6.772223    -5.204077     3.392240
H     7.647494    -5.287466     3.811758
H    -1.848792     8.953825     3.468905
O    -1.602381     9.260537     4.366716
H    -2.451819     9.392121     4.821425
H    -7.398396     1.555414    -5.278044
O    -7.970865     0.812452    -5.026936
H    -8.874967     1.211464    -4.953194
H     6.930076    -1.085265    -8.403811
O     6.349095    -1.807187    -8.667210
H     6.120704    -2.256267    -7.834976
H    -1.681808     6.231124    -7.047977
O    -2.081400     5.407634    -6.771733
H    -1.832499     5.277884    -5.808155
H    -0.028990     3.327888     9.006187
O     0.168787     2.408744     9.262894
H    -0.630062     2.144408     9.768508
H     6.752847    -2.773436    -2.702023
O     6.222571    -3.517761    -2.360929
H     6.692569    -4.328420    -2.605184
H    -4.077205    -3.081859    -4.957579
O    -4.229220    -2.970222    -5.922840
H    -4.778769    -2.178978    -5.981128
H     1.952582     2.202284     8.453074
O     2.617268     2.314293     7.763716
H     3.040765     1.444370     7.650641
H    -6.910580    -5.208324    -1.410889
O    -7.825191    -5.479801    -1.657477
H    -7.958355    -5.078716    -2.541138
H    -3.854693     5.264184     5.670506
O    -3.821293     6.031274     5.077933
H    -2.888011     6.327074     5.174042
H    -7.893257     0.080737    -1.990373
O    -7.403762     0.804365    -2.404547
H    -7.632401     0.790808    -3.358123
H     5.825586     0.140280     0.409225
O     5.601766     0.862583     1.028534
H     6.110975     0.669273     1.842623
H    -6.242175     3.319071     7.369495
O    -6.114648     2.802144     8.198975
H    -6.714186     2.040178     8.111049
H     2.277768    -8.069460    -0.838569
O     2.955711    -8.056983    -1.533895
H     2.732745    -8.772428    -2.146136
H    -2.741257    -3.970964    -6.207563
O    -1.986973    -4.535522    -5.973875
H    -1.712835    -4.242735    -5.076469
H    -5.667864     3.767071     5.282479
O    -6.318046     4.163540     5.898392
H    -6.157299     5.108005     5.882596
H    -1.016331    -7.117291    -3.165580
O    -0.545537    -6.445835    -2.637967
H     0.362541    -6.376296    -3.017409
H     4.422617     2.032782     5.121333
O     3.480959     2.271152     4.999244
H     3.095209     2.288014     5.880513
H     4.082697     4.674956     6.289056
O     4.163845     5.404080     5.669800
H     3.597513     5.161748     4.898603
H     2.743011     3.630072     3.910314
O     2.564617     4.569668     3.742212
H     2.446590     4.666335     2.775526
H     9.384080     0.223090    -1.068059
O     8.576766     0.385791    -0.576555
H     8.401261    -0.432316    -0.082086
H    -2.135718     5.338866     10.627594
O    -2.857224     4.709710     10.858717
H    -3.077698     4.888426     11.773102
H     7.964902    -2.996846     0.333156
O     8.384506    -2.149182     0.587548
H     8.317326    -2.142902     1.549768
H     5.349420     3.679872     3.516627
O     6.004591     3.947377     4.182968
H     5.590259     4.665399     4.683393
H    -4.242105     5.037182     9.758666
O    -4.873782     5.186259     9.035038
H    -5.485266     4.437315     9.032946
H    -7.012108    -3.488502    -3.503069
O    -7.630966    -4.101721    -3.951510
H    -7.108582    -4.544302    -4.652295
H    -0.008164     6.150061     10.749815
O    -0.872782     6.479894     10.500601
H    -0.756224     6.909329     9.633871
H     2.583050     1.495011    -4.115097
O     3.460359     1.849769    -3.875657
H     3.780480     1.336203    -3.103977
H    -6.995493    -0.210801     7.197192
O    -7.504829     0.567943     7.475348
H    -8.127671     0.749308     6.770408
H    -2.741294    -9.874400    -0.830424
O    -2.678954    -8.932942    -0.991710
H    -3.585716    -8.567159    -0.752990
H    -10.076898     3.060245    -4.914785
O    -10.194081     2.139689    -4.648297
H    -10.418322     2.207302    -3.698091
H    -2.082695    -3.015667     4.603923
O    -2.957230    -3.456565     4.672917
H    -2.949341    -4.075784     3.917828
H    -0.184040    -7.975499     2.486363
O     0.641430    -7.763086     2.935003
H     1.360946    -8.059320     2.349874
H     6.687428    -2.354470     6.395259
O     7.138263    -3.064489     5.933455
H     6.509203    -3.800130     5.895529
H    -5.292153    -1.993983     6.927181
O    -5.967970    -1.497206     6.441255
H    -5.950508    -1.876080     5.532933
H     0.832760     3.025400    -7.130319
O     1.750773     2.695760    -7.184223
H     1.739157     1.946863    -7.808579
H    -3.987908     8.767623     6.640321
O    -3.982260     8.763344     5.682990
H    -4.107560     7.835338     5.416955
H    -2.081346     10.309556    -2.767610
O    -2.980379     10.487355    -3.079901
H    -2.902750     11.126607    -3.787421
H     9.397741    -4.040963     4.053984
O     9.117681    -4.718365     4.677200
H     8.686647    -4.245298     5.399969
H    -0.730067    -6.003766    -5.844064
O    -0.026633    -6.568939    -5.508250
H     0.808810    -6.107165    -5.725475
H     1.803190     8.282486     0.641800
O     1.500800     8.602056    -0.237105
H     2.316657     8.640200    -0.765873
H     3.494459     2.926398    -6.673291
O     4.321749     2.638052    -6.262173
H     4.075552     2.365253    -5.353280
H     3.716038     7.130890    -1.247231
O     3.920309     8.066536    -1.462392
H     4.291867     8.009042    -2.354676
H     4.396441    -0.012024    -7.916763
O     4.771771     0.136251    -7.046922
H     4.588896     1.068415    -6.805400
H     6.018209     1.942255    -0.480748
O     6.584197     2.134999    -1.242156
H     7.409086     1.656575    -1.046376
H     6.684843    -8.423383    -1.594581
O     7.321540    -8.213210    -2.330652
H     7.689522    -9.047538    -2.616670
H    -5.297418    -5.799257    -5.418401
O    -5.914660    -5.128292    -5.735194
H    -5.364043    -4.360061    -5.972723
H     0.651310     7.190976     7.578831
O    -0.250754     7.218053     7.936981
H    -0.805253     7.230654     7.118878
H    -8.899410    -2.845908    -4.123875
O    -9.419894    -2.037611    -3.956382
H    -9.136689    -1.373105    -4.588130
H    -2.411389    -5.990667    -2.149217
O    -3.289020    -5.704929    -2.420116
H    -3.474755    -6.081989    -3.305175
H    -2.982597    -5.908346    -5.416433
O    -3.582542    -6.517670    -4.943821
H    -3.100253    -7.337317    -4.775091
H    -1.396332     3.716535    -7.004133
O    -0.855627     2.962745    -6.729324
H    -1.088875     2.175661    -7.278486
H    -0.203220     0.407873    -8.228842
O    -1.099562     0.643402    -7.946489
H    -1.275709     0.119939    -7.148664
H    -10.464069     3.877636    -2.653680
O    -10.544028     3.062010    -2.127507
H    -9.700407     3.044929    -1.641240
H     4.562077     4.092001     1.709294
O     4.353680     3.171239     1.988186
H     5.070927     2.595600     1.709827
H     6.479570     1.402076    -4.223507
O     6.175770     0.778919    -3.529024
H     6.205215     1.275640    -2.685909
H     9.625799    -2.213550    -0.922731
O     9.903524    -2.000094    -1.822403
H     9.103406    -1.663159    -2.267581
H     9.966748    -3.311502    -3.089562
O     9.701363    -3.964920    -3.763805
H     9.308293    -3.458970    -4.485564
H    -7.697276    -8.582046    -1.675814
O    -6.959960    -7.986959    -1.803769
H    -7.338906    -7.074425    -1.796070
H     4.148713     6.082898    -3.836173
O     4.808471     6.785365    -3.751048
H     5.645216     6.332941    -3.611761
H     0.103547    -8.175032    -5.213886
O     0.128334    -9.157638    -5.080337
H     0.280404    -9.522767    -5.952056
H    -2.330222    -8.676648    -2.717081
O    -2.095122    -8.413786    -3.626601
H    -1.447634    -9.032371    -3.983583
H     2.189929    -10.815896    -3.486532
O     2.142702    -9.861362    -3.463968
H     1.357711    -9.592423    -3.991738
H     6.827994     3.334591    -4.581285
O     6.887886     2.655239    -5.280829
H     6.095159     2.786522    -5.823042
H    -3.583352    -3.709682     7.710106
O    -3.697320    -2.922850     7.178545
H    -3.444608    -3.163247     6.261015
H    -0.635034    -3.370014    -6.731604
O    -0.005923    -2.637549    -6.739452
H    -0.489347    -1.862307    -6.399896
H     0.616457     0.480312     8.741215
O     0.625692    -0.235409     8.101697
H    -0.296096    -0.525561     8.013386
H    -5.676108     7.304405    -4.218955
O    -6.230602     6.769794    -4.828062
H    -6.613016     6.065693    -4.264343
H    -4.278704     9.103060    -3.293552
O    -4.822890     8.312680    -3.181690
H    -4.417430     7.827814    -2.443941
H    -8.704964     4.881570    -3.819698
O    -9.616282     4.900113    -4.137694
H    -9.871316     5.845668    -4.135498
H     2.740478     6.533170     6.122130
O     1.780076     6.628782     6.217777
H     1.437785     5.714721     6.117192
H     4.782613     8.557061     0.065667
O     5.098131     8.559789     0.987195
H     5.506250     7.696381     1.120337
H     4.146682    -7.424536    -4.336062
O     3.389667    -7.710882    -4.879042
H     3.109847    -8.551667    -4.502156
H     0.349253     8.671456     4.209319
O     1.027773     8.027130     3.982726
H     1.254142     7.536049     4.798569
H     5.224122     4.195762    -3.168194
O     6.185496     4.167475    -3.113832
H     6.394191     3.587298    -2.364917
H    -2.598820    -1.530770     7.560358
O    -2.089844    -0.736362     7.779338
H    -2.716859    -0.110460     8.152096
H    -7.743030     9.390001    -4.594459
O    -8.091931     8.757082    -5.229638
H    -7.448601     8.014608    -5.186029
H     3.527817    -8.970294     1.098690
O     2.850029    -8.338797     1.345179
H     3.323246    -7.532563     1.624842
H     3.560476     8.183459     1.809485
O     2.769835     7.619904     1.920879
H     2.322711     7.855751     2.746522
N    -10.332256     7.588475    -4.135442
H    -11.051694     7.752274    -4.752803
H    -9.560806     8.060915    -4.524848
