42
Coordinates from ORCA-job grain_mol_opt.QMRegion
  H   -0.37536140199991      6.88587122961189     -2.23570589245540
  O   -1.13364165166286      7.28735800368872     -2.73516841442632
  H   -1.90673447988561      7.17013461518633     -2.13496066075387
  H   -0.99421210980940      4.47364741924343     -3.84894727145617
  O   -1.65302428728184      5.10929786081857     -4.17935324206477
  H   -1.44495656237776      5.95378888229503     -3.72464986661420
  H   0.70094982309640      3.24831015396833     -2.57155232729476
  O   0.67491784455633      3.64892817056752     -3.47799453864530
  H   0.66108508758757      2.85795614011799     -4.03156883625647
  H   -1.19921121615337      1.47254429236490     -3.87877790896282
  O   -1.80587473129911      2.13977778532277     -4.26347750630726
  H   -1.50309421738008      2.35877858937316     -5.16668988894459
  H   2.22277599713737      5.82595413067298     -1.16603015577789
  O   3.15092206428686      5.52393677558404     -1.01859250716274
  H   3.34654333390699      4.91391285109331     -1.75363825688410
  H   3.43281686374745      3.38362764149646     -3.52967929021268
  O   3.35532495112041      4.37057670056266     -3.46635852265377
  H   2.39254925298584      4.46544891208740     -3.53047659122127
  H   1.34080278934381      1.58080077839835     -5.83965056556976
  O   1.17249962917319      1.00857264041019     -5.05911163298353
  H   1.55431031029449      0.14829024118230     -5.34399919535714
  H   -1.34478092163330      5.89646525485050     -7.11257810209177
  O   -2.00715290924554      5.30444117248437     -6.74579793799035
  H   -1.79043403102892      5.27948471468881     -5.76489469582036
  H   2.65244736054512      1.41560241322854     -4.07709634033238
  O   3.52537035196015      1.78691846061813     -3.84486389601017
  H   3.83714133408885      1.28469141960419     -3.05498720360745
  H   0.73148698987029      2.91370121947930     -7.15598021810572
  O   1.69128582036250      2.68551400633881     -7.21738893107527
  H   1.72147102995692      1.92369357299718     -7.83239427421276
  H   3.51686261010042      2.91301667884591     -6.65529941890591
  O   4.35023288767512      2.63203071373271     -6.25763528590720
  H   4.10823556830610      2.29355405914009     -5.36835304336529
  H   -1.41510199992789      3.70629466090799     -6.97065648743275
  O   -0.92529640390727      2.88440536743007     -6.71458266104557
  H   -1.17350841056550      2.13889604085771     -7.31293835733448
  H   4.36900565383448      6.28024916911188     -3.93889855434670
  O   5.06054809789818      6.91846199959709     -3.71753076640764
  H   5.78119553148217      6.35093600741100     -3.41436819412893
  O   1.02517448460456      5.75767652802194     -6.13351522297651
  H   0.72054530355465      5.27484960761365     -5.35635105582011
  H   1.60013349464768      5.13098597258587     -6.58527950918863
