603

H     0.205025     3.032118    -0.685752
O     0.728542     2.363578    -1.177870
H     1.666898     2.491986    -0.902033
H    -0.081648    -1.305825     3.143600
O     0.311096    -0.605817     2.599449
H    -0.166190     0.207973     2.832303
H    -2.394810     2.412328    -0.549503
O    -2.187337     1.941824     0.275229
H    -2.201230     0.993978     0.050407
H    -4.666047     0.549483     2.163763
O    -4.985525    -0.383208     2.173731
H    -4.476049    -0.861874     1.511611
H     0.063285    -0.307624     0.944178
O    -0.133017    -0.070440     0.017091
H     0.208359     0.825540    -0.102822
H    -0.162249    -3.576023     3.770410
O    -0.442062    -2.745788     4.190060
H     0.202494    -2.575377     4.893394
H    -4.886853     2.533318     1.311489
O    -4.249271     2.122879     1.927154
H    -3.404994     2.105322     1.416711
H    -3.241212     3.900325    -2.227374
O    -2.505217     3.302243    -1.994793
H    -2.143657     3.015252    -2.853476
H    -0.125875    -3.803973     0.495779
O     0.213114    -2.986270     0.913980
H    -0.574646    -2.499836     1.224501
H    -2.381982    -1.536736     2.456963
O    -2.192501    -2.003153     1.616296
H    -2.447465    -1.415433     0.886207
H     2.076320    -1.443278    -1.124038
O     2.305694    -1.695916    -0.205999
H     1.515706    -2.123576     0.176049
H    -1.392198     1.826469     1.901187
O    -1.487956     1.428528     2.776592
H    -1.473706     2.140447     3.442124
H     0.212567    -2.702395    -1.577251
O    -0.542887    -2.090515    -1.633184
H    -0.364246    -1.364254    -0.998880
H    -3.434623    -2.923197    -0.405878
O    -2.717621    -3.415566    -0.826445
H    -2.005936    -2.785676    -1.042280
H     2.767163     0.128928     2.932115
O     2.863709    -0.053806     3.894009
H     2.954725     0.838944     4.299085
H    -3.525214     6.382570    -0.558558
O    -3.285689     7.044627    -1.258655
H    -3.143983     7.889966    -0.788477
H     3.900508     0.583545     1.187021
O     2.949568     0.402135     1.300735
H     2.713660    -0.350257     0.720835
H    -5.776173     0.845395    -1.622416
O    -4.866085     1.173278    -1.497778
H    -4.976599     2.001887    -0.986326
H    -1.214245     5.398717     2.199335
O    -1.839331     4.651754     2.081323
H    -1.918654     4.233089     2.943740
H     3.494476     2.762800     0.425180
O     3.248048     2.719873    -0.514422
H     3.581715     1.877440    -0.864293
H     1.496203    -4.696724    -2.255153
O     1.559205    -3.919192    -1.682166
H     2.355104    -3.458559    -2.031165
H    -0.914316    -0.083999    -2.557508
O    -0.280550     0.569046    -2.880995
H    -0.020483     1.150992    -2.143543
H     1.699319    -4.685338    -0.183369
O     1.804021    -5.322246     0.559658
H     1.341434    -6.133474     0.262505
H    -1.219352    -3.264627    -2.889986
O    -1.045913    -3.947939    -3.550745
H    -0.919858    -4.795085    -3.081873
H    -2.789064     3.310907     4.690779
O    -1.807846     3.307545     4.658519
H    -1.516848     2.905904     5.495523
H     0.955183     5.035508     4.070139
O     0.008967     5.267704     4.120042
H    -0.463429     4.464607     4.377319
H    -1.730075    -4.649518    -0.383358
O    -0.965734    -5.190250    -0.096649
H    -1.314457    -5.877188     0.480858
H    -3.909828     5.834173    -2.614385
O    -4.261127     5.000791    -2.945722
H    -4.102218     4.966056    -3.913297
H    -2.435002    -3.687822     1.922896
O    -2.454895    -4.592155     2.298160
H    -1.515464    -4.830572     2.441105
H    -4.688159    -2.979000    -2.915587
O    -3.835920    -3.210637    -3.321602
H    -3.504741    -4.004615    -2.856572
H     0.330452     1.377732     4.608002
O     0.836689     2.137952     4.274923
H     0.884935     2.796677     4.982102
H    -4.652241    -5.167637    -1.589573
O    -5.355758    -4.813642    -1.017915
H    -5.144558    -5.168226    -0.133122
H     2.334316    -6.481886    -4.042241
O     1.995301    -6.152978    -3.189502
H     2.428224    -6.726933    -2.525327
H     0.475623    -3.378513    -4.012624
O     1.279191    -3.011377    -4.433753
H     0.961978    -2.640129    -5.283237
H     1.958064    -1.752668     2.978272
O     2.113094    -2.683655     2.761280
H     1.428727    -2.896990     2.092754
H    -3.007151    -1.807680    -3.224312
O    -2.585810    -0.920932    -3.157944
H    -3.239742    -0.275323    -3.479805
H    -3.190695     4.977668     1.064924
O    -3.972021     5.350536     0.609057
H    -4.387592     5.909366     1.314553
H     0.871981     2.254326     2.585038
O     0.974518     2.249314     1.613972
H     1.702116     1.626380     1.451383
H     0.194645     5.658146    -0.765668
O     0.716961     6.319859    -1.273823
H     0.858662     7.119643    -0.717777
H     0.340132     7.037058     2.583606
O    -0.020573     6.656433     1.765614
H     0.644095     5.985967     1.505488
H    -2.486282     0.217240     3.327723
O    -2.709791    -0.596979     3.831626
H    -1.950710    -0.636753     4.455296
H    -0.906348     0.555002     6.015343
O    -0.631173     0.035395     5.241376
H     0.081870    -0.568062     5.529548
H     0.704660    -4.993730     1.973772
O     0.160095    -5.103118     2.776735
H     0.304335    -6.023663     3.049468
H    -2.121516    -8.086754     0.435362
O    -1.800784    -7.598424     1.221020
H    -2.587904    -7.287573     1.675846
H    -0.371662     6.865256    -2.334280
O    -1.117216     7.284956    -2.835235
H    -1.908131     7.159187    -2.272970
H    -1.112688     4.311122     0.563731
O    -0.738194     4.371985    -0.331746
H    -1.443412     4.130379    -0.965520
H    -4.415363     2.749636     3.489791
O    -4.416344     2.920019     4.454195
H    -4.500462     2.037029     4.863300
H     2.014523    -3.582267     4.240595
O     1.948450    -4.054462     5.093627
H     2.454681    -3.518223     5.725358
H     4.685779    -3.195669     0.841119
O     4.527322    -3.119882    -0.125721
H     3.668828    -2.642324    -0.210917
H    -2.718805    -0.746594    -1.365594
O    -3.048771    -0.476860    -0.492058
H    -3.847829     0.049952    -0.700526
H    -1.605352    -0.759426    -4.642660
O    -1.097803    -0.542873    -5.445779
H    -0.387764     0.052942    -5.159397
H     1.802448    -1.714627    -3.381459
O     1.893248    -0.967852    -2.758024
H     1.116678    -0.390371    -2.891140
H     3.657245    -3.122968     2.550415
O     4.616324    -3.352141     2.479175
H     4.670649    -4.312286     2.606186
H     3.418077    -6.122065     3.122408
O     3.775638    -5.921310     2.222914
H     3.039424    -5.575397     1.678530
H    -3.333376     1.612688    -4.193973
O    -4.180538     1.144160    -4.005217
H    -4.397845     1.289192    -3.048405
H    -5.079019     4.150868     0.049008
O    -5.518955     3.285493    -0.057904
H    -6.448594     3.407403    -0.337824
H     6.737180    -1.183931    -1.356529
O     5.963616    -1.034050    -0.806596
H     5.544170    -1.901731    -0.609828
H     4.598506    -3.170023    -2.468859
O     3.731482    -2.998479    -2.886587
H     3.736450    -3.617246    -3.642782
H     4.422653    -2.294806     5.623022
O     4.077615    -2.760339     6.415244
H     4.412824    -3.665370     6.334422
H    -0.762305     6.339177     5.065500
O    -1.360184     6.915086     5.602162
H    -1.372183     7.792252     5.160838
H     4.702243    -0.137378    -1.464537
O     3.935427     0.405148    -1.728951
H     3.243695    -0.195364    -2.060521
H    -0.732203     4.524876    -4.047038
O    -1.514795     5.067801    -4.256018
H    -1.363281     5.934749    -3.833894
H     0.666915     3.204498    -2.664848
O     0.675257     3.581046    -3.573434
H     0.724679     2.817620    -4.158791
H    -5.389271    -5.190459     1.774870
O    -4.692225    -5.784423     1.419586
H    -3.851783    -5.369956     1.693055
H     7.889582    -1.692965    -4.025463
O     7.629862    -1.379604    -3.126372
H     7.143803    -0.535520    -3.283947
H     3.710786    -5.073315    -5.290584
O     4.472223    -4.700036    -4.807860
H     4.855497    -5.411261    -4.261436
H    -3.794278     0.020495     4.918847
O    -4.396610     0.484871     5.549602
H    -5.057222    -0.173157     5.840753
H     3.463715    -5.943301    -0.520429
O     4.337052    -5.696296    -0.836614
H     4.413502    -4.734040    -0.692650
H     5.009522    -0.337351    -4.158238
O     4.474432    -1.048342    -4.549142
H     4.147033    -1.631782    -3.831976
H    -1.163847     1.573304    -3.947204
O    -1.814147     2.193222    -4.334560
H    -1.454078     2.525347    -5.179849
H     4.887773    -6.323559    -2.313156
O     5.222155    -6.648609    -3.178146
H     6.039615    -7.129865    -2.989839
H     8.744681    -5.095079    -2.908298
O     8.051983    -5.512443    -2.351406
H     8.086526    -6.469805    -2.453285
H     2.339277     4.719659     0.448198
O     1.758060     4.701948     1.217904
H     1.400542     3.781720     1.295115
H    -4.425150    -2.631963     4.214050
O    -5.318608    -2.292418     4.008943
H    -5.180152    -1.510814     3.434702
H    -5.849954    -3.192237     1.297217
O    -6.316674    -3.747883     1.963671
H    -6.128019    -3.313967     2.815090
H     1.673580     3.469243     6.857746
O     1.051760     3.984728     6.322499
H     0.267833     4.138368     6.892678
H     4.992732    -2.170419     3.618418
O     5.011978    -1.452101     4.282508
H     4.200701    -0.895595     4.124148
H     2.378339    -5.576760     4.835530
O     2.758544    -6.460693     4.576195
H     2.013701    -7.042065     4.400836
H     2.269504    -4.516824    -6.793851
O     2.098346    -5.004924    -5.978469
H     1.832910    -4.313624    -5.323626
H     6.439269    -4.105374    -0.498199
O     7.191362    -4.508551    -0.033267
H     7.700101    -4.931563    -0.752896
H    -1.739597     4.492213     7.689100
O    -0.841475     4.589994     8.076203
H    -0.660246     5.549105     8.101085
H    -5.105341     5.695900    -5.616099
O    -4.499193     4.931177    -5.634612
H    -3.740157     5.145159    -6.198666
H     3.297774    -2.528786    -8.438461
O     3.208102    -3.060774    -7.636907
H     4.084031    -3.037184    -7.206572
H    -0.652091     8.828286    -2.288713
O    -0.530346     9.656556    -1.769418
H     0.230941     9.482226    -1.191308
H     2.055210    -0.912228     5.207833
O     1.480605    -1.437627     5.793902
H     1.573152    -1.092682     6.691408
H     5.216553    -2.026172    -5.690603
O     5.563395    -2.792642    -6.211801
H     5.288386    -3.582449    -5.694666
H     5.683487    -5.216302     4.689896
O     5.159516    -5.130963     5.515464
H     4.438178    -5.762973     5.428677
H    -3.988556     1.149259     6.990689
O    -3.797991     1.625160     7.834686
H    -4.674483     2.011102     8.093831
H    -1.846725     9.616432    -0.758767
O    -2.708387     9.489871    -0.286459
H    -3.318274     10.119140    -0.675083
H    -5.940710     4.694018    -2.959577
O    -6.849488     4.571423    -3.303168
H    -6.755865     3.871853    -3.982568
H     0.093936    -7.063969    -1.150707
O     0.556538    -7.499707    -0.401969
H    -0.123911    -7.694579     0.245522
H    -7.628497     3.796151    -1.999387
O    -7.898404     3.210778    -1.260186
H    -7.751484     2.300983    -1.594783
H     3.958617    -0.892671     6.986609
O     3.967374     0.071482     6.977173
H     4.780776     0.361109     6.547458
H     2.262544     5.796252    -1.184019
O     3.197619     5.503143    -1.067673
H     3.375881     4.963023    -1.860499
H     6.546748    -5.931683     0.677725
O     6.176772    -6.667876     1.210663
H     5.271907    -6.390482     1.435698
H    -3.883210     4.732621     7.764397
O    -3.315665     4.269611     7.106240
H    -3.509205     3.326236     7.216874
H     5.758976    -7.947451     0.142315
O     5.472159    -8.634585    -0.495651
H     4.643921    -8.308866    -0.891615
H    -0.572841     2.044042     7.683812
O    -1.204710     1.979453     6.947497
H    -2.073919     1.838150     7.342563
H    -6.382417    -0.117918     1.039725
O    -6.705994    -0.201199     0.127520
H    -7.623863    -0.473659     0.150570
H    -5.371261    -3.062145    -0.606329
O    -5.121177    -2.358628     0.018886
H    -5.690194    -1.585880    -0.170373
H     4.318605     5.577286     0.320090
O     4.650536     5.677907     1.226003
H     3.955354     6.188601     1.676743
H    -8.991825    -1.814577    -2.259236
O    -8.492619    -1.589836    -1.452382
H    -8.585935    -2.337378    -0.811607
H    -5.515103     3.472408    -5.547483
O    -6.032763     2.761568    -5.132692
H    -5.364766     2.177904    -4.718062
H     3.191084    -0.889548    -5.656864
O     2.335911    -1.009394    -6.124161
H     2.422419    -1.858393    -6.597548
H     8.125608    -1.352973    -6.020829
O     8.132537    -2.216806    -5.564060
H     7.276835    -2.616661    -5.816386
H     7.633202     0.987685    -6.303047
O     7.444774     0.139315    -6.716373
H     6.463524     0.089654    -6.754644
H    -7.866960    -3.683974     0.903160
O    -8.541426    -3.578232     0.214354
H    -8.441611    -4.341698    -0.382283
H    -2.407370     8.739468     1.278641
O    -2.258709     8.150655     2.031886
H    -1.487871     7.597650     1.811137
H    -4.449100     6.439454     3.478965
O    -4.617545     6.864722     2.621670
H    -3.853978     7.450918     2.483634
H     3.408657     3.445673    -3.579200
O     3.255267     4.414954    -3.486196
H     2.290725     4.480006    -3.595975
H    -6.108217    -1.602534    -3.461923
O    -6.195021    -2.179494    -2.676735
H    -6.977979    -1.870763    -2.170365
H     6.458081     1.049028     4.744278
O     6.062629     1.588025     5.446247
H     6.251601     2.506606     5.155549
H     1.373162     1.721685    -5.828311
O     1.176499     1.125962    -5.074412
H     1.540941     0.262919    -5.343206
H    -2.509966     2.967500     10.470607
O    -2.297524     2.059796     10.197773
H    -2.893909     1.860229     9.464331
H     7.620514    -0.499306     3.090714
O     6.870189     0.076507     3.257747
H     6.177140    -0.523572     3.636099
H    -5.661554    -8.051186    -0.718351
O    -4.927919    -8.119583    -0.070713
H    -4.932613    -7.302350     0.451213
H    -5.164923    -0.117230    -4.733869
O    -5.784153    -0.828037    -4.971980
H    -6.614516    -0.382061    -5.187779
H     1.904278    -0.199401    -7.519337
O     1.704245     0.272500    -8.363573
H     2.281889    -0.133017    -9.015679
H     4.889347    -1.395762    -9.302291
O     3.964786    -1.166604    -9.586253
H     3.946428    -1.284670    -10.535319
H     7.553695    -2.572205     4.207501
O     7.702347    -2.608447     3.248301
H     7.209429    -3.399306     2.975667
H     6.712440    -5.896336     2.691243
O     6.772852    -5.220956     3.392307
H     7.647903    -5.306187     3.811953
H    -1.825528     8.950594     3.483804
O    -1.579503     9.255257     4.382551
H    -2.429106     9.388285     4.836369
H    -7.324992     1.664725    -5.230092
O    -7.917033     0.924423    -4.994687
H    -8.810950     1.333544    -4.898566
H     6.941697    -1.086305    -8.398466
O     6.359831    -1.807085    -8.663047
H     6.130396    -2.256874    -7.831502
H    -1.662215     6.241377    -7.035460
O    -2.061479     5.416933    -6.761360
H    -1.813730     5.286504    -5.797583
H    -0.016781     3.314239     9.014920
O     0.179247     2.394371     9.270371
H    -0.620083     2.130711     9.775510
H     6.759671    -2.781993    -2.699008
O     6.228208    -3.525984    -2.358965
H     6.697128    -4.336997    -2.604146
H    -4.069449    -3.071145    -4.959121
O    -4.221080    -2.958962    -5.924281
H    -4.767376    -2.165921    -5.984065
H     1.963301     2.186129     8.461113
O     2.628251     2.298116     7.772033
H     3.050638     1.427791     7.657899
H    -6.907583    -5.197550    -1.417685
O    -7.823965    -5.463368    -1.664902
H    -7.955059    -5.063199    -2.549038
H    -3.837352     5.260888     5.680893
O    -3.803336     6.028820     5.089469
H    -2.869527     6.323256     5.185558
H    -7.840259     0.103183    -1.899152
O    -7.370004     0.835836    -2.323140
H    -7.584868     0.843205    -3.278362
H     5.835917     0.129082     0.415746
O     5.612790     0.850767     1.036006
H     6.121543     0.655761     1.849958
H    -6.229807     3.317231     7.375542
O    -6.103482     2.799134     8.204477
H    -6.703918     2.038049     8.115504
H     2.275848    -8.073739    -0.843835
O     2.953904    -8.061224    -1.539017
H     2.730134    -8.775571    -2.152251
H    -2.734497    -3.960724    -6.209960
O    -1.981712    -4.527052    -5.976040
H    -1.707062    -4.235324    -5.078484
H    -5.653646     3.766966     5.289935
O    -6.304444     4.163838     5.905048
H    -6.139614     5.107686     5.892960
H    -1.016033    -7.113236    -3.171198
O    -0.544666    -6.443141    -2.642376
H     0.363846    -6.374645    -3.021194
H     4.434203     2.017571     5.129748
O     3.492838     2.257207     5.007735
H     3.106983     2.273814     5.888948
H     4.097969     4.658729     6.300737
O     4.180208     5.388690     5.682621
H     3.613974     5.148184     4.910758
H     2.757676     3.618998     3.920135
O     2.580484     4.559053     3.753466
H     2.463150     4.657427     2.786807
H     9.394917     0.208316    -1.060188
O     8.587812     0.371624    -0.568541
H     8.410817    -0.446925    -0.075358
H    -2.120995     5.326405     10.638091
O    -2.843716     4.698175     10.868112
H    -3.063862     4.875804     11.782794
H     7.970313    -3.011341     0.336449
O     8.391138    -2.164693     0.592138
H     8.323563    -2.159543     1.554332
H     5.364263     3.665355     3.527408
O     6.019309     3.930666     4.194788
H     5.606060     4.649061     4.695546
H    -4.227359     5.029321     9.768124
O    -4.858929     5.179915     9.044671
H    -5.471110     4.431568     9.041665
H    -7.006323    -3.474896    -3.503036
O    -7.633192    -4.074533    -3.958029
H    -7.110795    -4.524863    -4.654330
H     0.007607     6.134082     10.762237
O    -0.856421     6.465526     10.513097
H    -0.738775     6.895969     9.646997
H     2.597102     1.495009    -4.108110
O     3.474981     1.847706    -3.867820
H     3.793820     1.332818    -3.096564
H    -6.987967    -0.211496     7.198903
O    -7.496630     0.567476     7.477662
H    -8.118691     0.750541     6.772502
H    -2.745904    -9.870867    -0.840121
O    -2.682218    -8.929234    -0.999905
H    -3.588373    -8.562596    -0.761254
H    -10.229355     3.008511    -4.943509
O    -10.266938     2.136728    -4.526046
H    -10.326744     2.394049    -3.570316
H    -2.079031    -3.020268     4.603483
O    -2.954609    -3.459501     4.671111
H    -2.946855    -4.078140     3.915563
H    -0.187414    -7.980244     2.479897
O     0.638082    -7.769608     2.929288
H     1.357528    -8.066223     2.344227
H     6.691513    -2.375123     6.398975
O     7.141384    -3.085271     5.936436
H     6.511191    -3.819866     5.897251
H    -5.287722    -1.996814     6.926770
O    -5.962740    -1.498629     6.441099
H    -5.945170    -1.876304     5.532376
H     0.850384     3.032372    -7.121442
O     1.767782     2.700875    -7.175316
H     1.755116     1.953324    -7.801190
H    -3.965099     8.763313     6.655004
O    -3.961685     8.760394     5.697642
H    -4.086680     7.832681     5.430471
H    -2.051545     10.316283    -2.751985
O    -2.952616     10.497463    -3.055781
H    -2.879554     11.131723    -3.768278
H     9.400057    -4.062784     4.056398
O     9.118613    -4.740538     4.678613
H     8.688157    -4.267682     5.401861
H    -0.726860    -5.996907    -5.848062
O    -0.024468    -6.563323    -5.512214
H     0.811782    -6.102732    -5.728966
H     1.826766     8.276936     0.657908
O     1.525013     8.598294    -0.220405
H     2.340697     8.636000    -0.749399
H     3.511596     2.928359    -6.663956
O     4.338268     2.637932    -6.253028
H     4.091352     2.364594    -5.344523
H     3.737688     7.125052    -1.232363
O     3.943930     8.060617    -1.445916
H     4.314991     8.003999    -2.338450
H     4.409507    -0.009838    -7.910957
O     4.784699     0.136604    -7.040747
H     4.603212     1.068776    -6.798061
H     6.031513     1.932031    -0.471837
O     6.598135     2.124724    -1.232759
H     7.422225     1.644842    -1.037225
H     6.682755    -8.433252    -1.599031
O     7.320026    -8.223005    -2.334541
H     7.687302    -9.057405    -2.621254
H    -5.295907    -5.786394    -5.421957
O    -5.913128    -5.112413    -5.732335
H    -5.360903    -4.347025    -5.974881
H     0.669895     7.178161     7.592919
O    -0.232328     7.206043     7.950681
H    -0.786315     7.220843     7.132237
H    -8.779306    -2.824251    -4.221662
O    -9.239636    -1.964045    -4.109872
H    -8.747141    -1.346701    -4.666621
H    -2.410119    -5.985440    -2.153762
O    -3.287472    -5.698397    -2.424424
H    -3.472800    -6.073888    -3.310394
H    -2.979924    -5.898248    -5.420925
O    -3.580905    -6.506999    -4.948763
H    -3.100051    -7.327879    -4.781799
H    -1.376841     3.727517    -6.994385
O    -0.837960     2.971624    -6.721215
H    -1.072979     2.186427    -7.271988
H    -0.189017     0.417660    -8.224312
O    -1.085258     0.653689    -7.942060
H    -1.262170     0.129696    -7.144876
H    -10.309164     4.200322    -2.749672
O    -10.414244     3.442494    -2.153461
H    -9.554846     3.390633    -1.679801
H     4.577787     4.081154     1.720529
O     4.368340     3.160284     1.998574
H     5.084678     2.584045     1.719149
H     6.493392     1.396021    -4.215189
O     6.188556     0.772331    -3.521584
H     6.218344     1.268025    -2.677874
H     9.632835    -2.228851    -0.917952
O     9.911197    -2.014714    -1.817258
H     9.111792    -1.675926    -2.262310
H     9.972884    -3.324517    -3.086181
O     9.706675    -3.976663    -3.761330
H     9.314700    -3.469149    -4.482591
H    -7.699826    -8.569787    -1.687543
O    -6.961993    -7.974589    -1.811916
H    -7.340049    -7.062400    -1.803800
H     4.169386     6.080273    -3.822503
O     4.830442     6.781365    -3.736234
H     5.666338     6.327275    -3.597339
H     0.103180    -8.170034    -5.220326
O     0.126018    -9.152821    -5.087803
H     0.277935    -9.517303    -5.959824
H    -2.332146    -8.671403    -2.725199
O    -2.096822    -8.407449    -3.634281
H    -1.450013    -9.026273    -3.992198
H     2.184613    -10.816462    -3.495564
O     2.138565    -9.861910    -3.471383
H     1.354384    -9.591064    -3.999352
H     6.844861     3.328474    -4.570260
O     6.903950     2.649857    -5.270609
H     6.111678     2.783194    -5.812997
H    -3.581657    -3.715874     7.708151
O    -3.694973    -2.928473     7.177281
H    -3.441690    -3.168030     6.259709
H    -0.627330    -3.361915    -6.732425
O     0.003132    -2.630679    -6.738375
H    -0.479033    -1.854814    -6.398539
H     0.624267     0.466038     8.746354
O     0.632546    -0.248863     8.105906
H    -0.289617    -0.537496     8.016907
H    -5.823772     7.372920    -4.272735
O    -6.326463     6.753628    -4.833662
H    -6.614652     6.024272    -4.242090
H    -4.270740     9.106702    -3.282369
O    -4.806632     8.310625    -3.176270
H    -4.399180     7.831864    -2.436346
H    -9.706134     5.790121    -4.672906
O    -10.240540     4.985061    -4.514955
H    -11.120433     5.194069    -4.830478
H     2.758559     6.519203     6.135971
O     1.798290     6.616075     6.231859
H     1.454652     5.702787     6.129337
H     4.805743     8.548063     0.082786
O     5.121175     8.549023     1.004385
H     5.527896     7.684780     1.136310
H     4.146917    -7.427029    -4.340104
O     3.389439    -7.711511    -4.883420
H     3.108467    -8.552447    -4.507746
H     0.371555     8.663869     4.224896
O     1.049112     8.018642     3.998046
H     1.274255     7.526220     4.813363
H     5.241883     4.190601    -3.156662
O     6.203201     4.160326    -3.102089
H     6.410601     3.579028    -2.353717
H    -2.593999    -1.538615     7.561615
O    -2.083864    -0.745319     7.781772
H    -2.709856    -0.118906     8.155358
H    -9.020071     7.941940    -4.173914
O    -8.957743     7.349992    -4.924985
H    -8.000602     7.189983    -5.063078
H     3.523183    -8.979064     1.092575
O     2.846353    -8.346780     1.339694
H     3.320876    -7.541660     1.620404
H     3.582934     8.173847     1.825769
O     2.791890     7.610772     1.936839
H     2.344475     7.846929     2.762197
N    -11.660260    -0.462900    -5.389946
H    -11.353460     0.408184    -5.103033
H    -11.087855    -1.086195    -4.924657
