36
Coordinates from ORCA-job grain_mol_opt.QMRegion
  H   1.96223025944223     -3.67572896162991      4.18487452996076
  O   1.78460480969122     -4.12668149486327      5.03724398569495
  H   2.41076447651006     -3.70898274282416      5.65685539610909
  H   4.37377742208050     -2.69061405594486      5.75084774821605
  O   4.09514717281796     -3.32159555490965      6.44328585065285
  H   4.48834196728889     -4.17215852731577      6.13603558210653
  H   4.89613576690667     -2.23208900767592      3.70045137405640
  O   4.85635237957140     -1.52858887507132      4.38458527110036
  H   4.04354775346527     -1.00448866334450      4.15610565078584
  H   1.95455694387506     -0.75715514629339      5.23172310065682
  O   1.51974484790337     -1.33676180553774      5.88489907702142
  H   1.45642051575973     -0.86713362499091      6.73687614327725
  H   5.70494686858979     -5.54034079910058      4.66899719878370
  O   5.19237920758157     -5.65336003014273      5.50033203209573
  H   4.39186724460993     -6.13621516579487      5.23394457434092
  H   4.11663896051275     -0.28599212710079      6.63264256025745
  O   4.49110452841794      0.38790175435176      7.20968868744597
  H   5.12956482485652      0.86916235519983      6.63418298821386
  H   6.46968236313192      1.15559617459324      4.71986486230117
  O   6.10641956633670      1.74437260747216      5.41037465789386
  H   6.22939247912447      2.65562304341606      5.02681700038301
  H   7.41082760847025     -0.62197539045341      3.11641397337499
  O   6.73549546565103      0.03577020387271      3.33359334128074
  H   6.01034679710212     -0.54321703583615      3.67800017274316
  H   7.59756551576625     -2.66091611829530      4.29677637071773
  O   7.73355921300027     -2.65936041518755      3.32954719682191
  H   7.23228475005979     -3.44658648655812      3.05520170769924
  H   1.92830121342688      2.24544983364706      8.50207388141076
  O   2.67521021275846      2.43810173716834      7.91876584044058
  H   3.18169177588443      1.61082809898970      7.82605285740880
  H   7.03447603595222     -2.67133345886489      6.81733141092441
  O   7.34589144026159     -3.24564070389170      6.07829135033897
  H   6.73652932924482     -3.99182218799713      6.10033422271117
  O   6.00075701702577     -2.01727053089782      8.11554591496772
  H   5.70572467092213     -1.09893265011552      8.00939464198656
  H   5.23329950670989     -2.52928881892069      7.79508088950592
