39

H    -4.587202     0.432982     2.028402
O    -4.950118    -0.477349     2.145392
H    -4.573391    -1.011697     1.430541
H    -4.857994     2.503603     1.243664
O    -4.229309     2.098104     1.879356
H    -3.376501     2.101456     1.371223
H    -4.323587     2.735317     3.457502
O    -4.368396     2.878875     4.429343
H    -4.439065     1.973215     4.803234
H    -3.760965    -0.064124     4.932623
O    -4.360438     0.425131     5.552136
H    -4.987684    -0.252541     5.896075
H    -4.411493    -2.767749     4.256589
O    -5.286122    -2.377513     4.050538
H    -5.072208    -1.599779     3.489100
H    -3.910086     1.061461     7.016634
O    -3.780722     1.560659     7.858172
H    -4.670665     1.941131     8.078982
H    -3.873604     4.753554     7.867069
O    -3.310926     4.325786     7.178018
H    -3.467377     3.369905     7.279282
H    -6.478421    -0.209245     1.027780
O    -6.713138    -0.257794     0.088393
H    -7.596710    -0.633165     0.010184
H    -6.206899     3.281620     7.417701
O    -6.088313     2.770876     8.244282
H    -6.727025     2.024304     8.158541
H    -5.516731     3.831553     5.211361
O    -6.281385     4.108215     5.778825
H    -6.348564     5.062032     5.680153
H    -7.136133    -0.180781     7.397617
O    -7.625959     0.645160     7.526565
H    -7.781204     0.963497     6.614194
H    -5.154517    -2.055080     7.003617
O    -5.883631    -1.564574     6.580007
H    -5.904446    -1.951047     5.676151
N    -7.741752     1.817900     4.956002
H    -7.099362     1.420493     4.359964
H    -7.396891     2.717299     5.113919
