33

H     3.228675    -0.932905    -5.662767
O     2.351440    -1.054390    -6.096455
H     2.416910    -1.913736    -6.559262
H     7.902687     0.888010    -6.275982
O     7.617479     0.117850    -6.781316
H     6.631214     0.146432    -6.730717
H     1.298596     1.654149    -5.838964
O     1.143733     1.104317    -5.052527
H     1.510319     0.229512    -5.292156
H     1.899993    -0.234874    -7.513933
O     1.545229     0.242153    -8.305172
H     2.008213    -0.154988    -9.048869
H     4.978027    -1.184719    -9.341375
O     4.087052    -0.763918    -9.389737
H     4.231463     0.150138    -9.683650
H     7.096011    -1.325165    -8.436555
O     6.430228    -1.985741    -8.671771
H     6.163575    -2.344979    -7.804033
H     0.745609     3.051778    -7.192906
O     1.676155     2.772097    -7.353208
H     1.611355     1.927865    -7.855176
H     3.328855     2.954953    -6.563035
O     4.197787     2.687200    -6.208323
H     3.991175     2.380686    -5.295337
H     4.534491    -0.141910    -7.688560
O     4.937301     0.157937    -6.853733
H     4.579422     1.055455    -6.691112
H     6.787148     3.358995    -4.468048
O     6.881486     2.718170    -5.210021
H     6.081528     2.875121    -5.734530
N     4.195668     2.153024    -9.499235
H     4.727355     2.386683    -8.729440
H     3.358384     2.604630    -9.340947
