603

H     0.178966     3.024538    -0.676437
O     0.706532     2.358060    -1.167274
H     1.642684     2.485860    -0.884663
H    -0.130533    -1.321628     3.138874
O     0.267319    -0.620902     2.599653
H    -0.213143     0.191967     2.830331
H    -2.421487     2.403470    -0.557588
O    -2.216251     1.931154     0.266640
H    -2.232848     0.983731     0.040062
H    -4.709610     0.531541     2.139784
O    -5.026478    -0.401373     2.146373
H    -4.513452    -0.877515     1.485373
H     0.028256    -0.319252     0.944637
O    -0.158804    -0.080991     0.015914
H     0.178457     0.817220    -0.098028
H    -0.209627    -3.595288     3.760008
O    -0.493271    -2.766960     4.180673
H     0.147052    -2.596885     4.887878
H    -4.924567     2.519609     1.291115
O    -4.289459     2.109528     1.909692
H    -3.443256     2.092946     1.403248
H    -3.257424     3.895196    -2.236507
O    -2.521190     3.298183    -2.001512
H    -2.155970     3.012484    -2.858964
H    -0.157302    -3.813910     0.484740
O     0.179477    -2.998440     0.908980
H    -0.610350    -2.512046     1.215150
H    -2.426940    -1.553239     2.440230
O    -2.228931    -2.017821     1.599826
H    -2.482239    -1.429540     0.869524
H     2.054530    -1.449047    -1.113750
O     2.278937    -1.704900    -0.195341
H     1.486050    -2.132353     0.181066
H    -1.434393     1.813886     1.898029
O    -1.530984     1.412527     2.771725
H    -1.526785     2.122372     3.439722
H     0.194000    -2.707591    -1.581705
O    -0.560977    -2.095772    -1.641644
H    -0.387117    -1.370826    -1.004506
H    -3.462140    -2.932855    -0.434892
O    -2.740375    -3.423416    -0.850042
H    -2.029189    -2.791478    -1.060900
H     2.718372     0.111248     2.951871
O     2.809821    -0.072747     3.914095
H     2.896362     0.819841     4.320034
H    -3.551771     6.373142    -0.565267
O    -3.307422     7.037804    -1.261946
H    -3.169887     7.881471    -0.788001
H     3.863884     0.571573     1.213839
O     2.912643     0.389081     1.322052
H     2.679828    -0.360998     0.737916
H    -5.795044     0.838118    -1.656645
O    -4.885687     1.165653    -1.523692
H    -5.000866     1.992919    -1.010927
H    -1.258675     5.382663     2.207617
O    -1.881751     4.635646     2.082101
H    -1.969173     4.214993     2.942801
H     3.461707     2.752602     0.455163
O     3.222823     2.712684    -0.486406
H     3.557663     1.870676    -0.836082
H     1.482184    -4.699937    -2.257003
O     1.542172    -3.924421    -1.681076
H     2.339519    -3.462138    -2.024252
H    -0.928019    -0.086678    -2.563258
O    -0.290713     0.566172    -2.880366
H    -0.036847     1.146870    -2.139816
H     1.672615    -4.693823    -0.183650
O     1.773492    -5.333118     0.557993
H     1.312264    -6.143243     0.255787
H    -1.230467    -3.266366    -2.905929
O    -1.051025    -3.948417    -3.566538
H    -0.929129    -4.796297    -3.098172
H    -2.850295     3.287741     4.683030
O    -1.869045     3.283888     4.656781
H    -1.587045     2.882155     5.496631
H     0.897581     5.013781     4.090376
O    -0.048628     5.246528     4.133215
H    -0.524250     4.444250     4.387753
H    -1.754347    -4.657435    -0.407205
O    -0.991714    -5.200198    -0.118992
H    -1.344640    -5.886890     0.456196
H    -3.923292     5.830408    -2.623767
O    -4.271336     4.997453    -2.959287
H    -4.107770     4.965227    -3.926031
H    -2.472878    -3.704809     1.889832
O    -2.491767    -4.613793     2.254856
H    -1.553298    -4.847842     2.411004
H    -4.699310    -2.979709    -2.952779
O    -3.843704    -3.212200    -3.352607
H    -3.516800    -4.006494    -2.885747
H     0.272969     1.356111     4.610001
O     0.785322     2.116644     4.287068
H     0.819357     2.774910     4.995523
H    -4.670299    -5.174226    -1.629762
O    -5.377546    -4.822372    -1.061859
H    -5.172412    -5.177802    -0.176115
H     2.332290    -6.480092    -4.044041
O     1.988276    -6.153660    -3.192468
H     2.417114    -6.729100    -2.527058
H     0.472364    -3.377507    -4.017180
O     1.278693    -3.009991    -4.432976
H     0.966107    -2.636058    -5.282999
H     1.909787    -1.769044     2.987238
O     2.067597    -2.699284     2.768644
H     1.387650    -2.910955     2.094954
H    -3.016294    -1.808837    -3.247288
O    -2.594168    -0.922728    -3.177350
H    -3.247339    -0.276010    -3.499659
H    -3.227346     4.964464     1.056885
O    -4.004127     5.339631     0.595589
H    -4.425250     5.897129     1.299421
H     0.825811     2.238612     2.597170
O     0.935925     2.236853     1.626822
H     1.663603     1.613341     1.467497
H     0.168896     5.650032    -0.750245
O     0.695129     6.313167    -1.252887
H     0.832113     7.111487    -0.693849
H     0.294232     7.021185     2.603442
O    -0.060525     6.643454     1.781647
H     0.604737     5.972364     1.524929
H    -2.539694     0.198594     3.312407
O    -2.760319    -0.617780     3.812917
H    -2.003393    -0.655479     4.439172
H    -0.965070     0.534783     5.995308
O    -0.686598     0.005269     5.228076
H     0.021483    -0.597317     5.526704
H     0.665608    -5.007604     1.965951
O     0.116925    -5.119676     2.765772
H     0.258922    -6.041286     3.036060
H    -2.151200    -8.097631     0.402288
O    -1.834604    -7.612745     1.191699
H    -2.624202    -7.300808     1.641550
H    -0.387658     6.860989    -2.318955
O    -1.129813     7.282274    -2.823415
H    -1.924548     7.154602    -2.266630
H    -1.145920     4.300175     0.568112
O    -0.765559     4.363366    -0.324796
H    -1.467110     4.122932    -0.963353
H    -4.471512     2.721124     3.479311
O    -4.476668     2.888651     4.444348
H    -4.557306     2.005152     4.851827
H     1.960705    -3.602025     4.244437
O     1.889845    -4.076975     5.095666
H     2.389319    -3.540868     5.732664
H     4.652216    -3.205936     0.863097
O     4.500049    -3.128056    -0.104538
H     3.641794    -2.650507    -0.194117
H    -2.739694    -0.752400    -1.384278
O    -3.073488    -0.485499    -0.511417
H    -3.872907     0.040418    -0.722106
H    -1.606647    -0.757166    -4.654452
O    -1.092179    -0.539789    -5.453309
H    -0.385219     0.056283    -5.160272
H     1.794591    -1.714887    -3.373718
O     1.882178    -0.969639    -2.748133
H     1.105579    -0.392329    -2.883440
H     3.612980    -3.137052     2.566051
O     4.572589    -3.366286     2.500672
H     4.625746    -4.326817     2.625192
H     3.371301    -6.138331     3.129086
O     3.734510    -5.935130     2.232441
H     3.001604    -5.588158     1.684162
H    -3.337601     1.613712    -4.208186
O    -4.184010     1.142635    -4.025904
H    -4.409727     1.285571    -3.070500
H    -5.110298     4.139746     0.027622
O    -5.547776     3.273958    -0.083019
H    -6.476266     3.394382    -0.369797
H     6.716972    -1.188826    -1.316523
O     5.940355    -1.040368    -0.770583
H     5.519305    -1.908446    -0.578926
H     4.585736    -3.172062    -2.447356
O     3.721441    -2.999686    -2.870193
H     3.730929    -3.616603    -3.627773
H     4.359275    -2.316691     5.645566
O     4.010888    -2.783203     6.435820
H     4.344815    -3.688593     6.354088
H    -0.824110     6.317441     5.077412
O    -1.422076     6.895425     5.611151
H    -1.429291     7.772991     5.171313
H     4.682270    -0.142519    -1.434612
O     3.917376     0.400760    -1.702664
H     3.227355    -0.198703    -2.039863
H    -0.736567     4.525083    -4.039710
O    -1.517194     5.068825    -4.253647
H    -1.369680     5.934243    -3.827138
H     0.653632     3.202118    -2.651979
O     0.668946     3.580865    -3.559661
H     0.720503     2.818609    -4.146342
H    -5.428591    -5.201814     1.731743
O    -4.732595    -5.798472     1.377886
H    -3.891801    -5.385179     1.650887
H     7.886298    -1.690500    -3.979492
O     7.621274    -1.379499    -3.081177
H     7.135601    -0.535229    -3.239515
H     3.715818    -5.068343    -5.279299
O     4.474659    -4.696583    -4.791232
H     4.854130    -5.409057    -4.243885
H    -3.797529    -0.008917     4.846970
O    -4.393509     0.439381     5.503346
H    -5.084470    -0.210461     5.709507
H     3.439066    -5.950049    -0.512766
O     4.314605    -5.702770    -0.822734
H     4.390073    -4.740764    -0.676351
H     5.006394    -0.335194    -4.126963
O     4.474632    -1.045713    -4.523196
H     4.142055    -1.630519    -3.809495
H    -1.168136     1.573261    -3.949674
O    -1.815191     2.194641    -4.339776
H    -1.450252     2.528268    -5.182055
H     4.874283    -6.326078    -2.297454
O     5.214367    -6.649101    -3.161032
H     6.030660    -7.130643    -2.968558
H     8.735056    -5.095385    -2.865764
O     8.039049    -5.514484    -2.314342
H     8.074424    -6.471526    -2.418591
H     2.306459     4.709014     0.475099
O     1.721538     4.689635     1.241878
H     1.362711     3.769399     1.314656
H    -4.477513    -2.655048     4.184702
O    -5.370826    -2.305962     3.997710
H    -5.233341    -1.524520     3.424033
H    -5.884255    -3.201355     1.262221
O    -6.350191    -3.759356     1.927334
H    -6.170910    -3.323057     2.779744
H     1.597137     3.441434     6.878702
O     0.981320     3.959635     6.339957
H     0.193506     4.110470     6.906894
H     4.941040    -2.187370     3.645202
O     4.955907    -1.470764     4.311284
H     4.145232    -0.914113     4.148979
H     2.321295    -5.597970     4.836736
O     2.703155    -6.481439     4.578105
H     1.959390    -7.062082     4.395852
H     2.283770    -4.508804    -6.789919
O     2.108005    -4.999045    -5.976820
H     1.837667    -4.309313    -5.322040
H     6.414341    -4.111990    -0.467344
O     7.163715    -4.516360     0.000998
H     7.676756    -4.937402    -0.716695
H    -1.797034     4.474261     7.684022
O    -0.904067     4.556211     8.094888
H    -0.715133     5.513577     8.119911
H    -5.100170     5.699296    -5.632859
O    -4.492524     4.935777    -5.650352
H    -3.730481     5.151653    -6.209239
H     3.322261    -2.516449    -8.422977
O     3.228002    -3.051269    -7.623858
H     4.100920    -3.027887    -7.187512
H    -0.668388     8.823745    -2.271183
O    -0.548921     9.651515    -1.750334
H     0.207970     9.475360    -1.167059
H     1.994864    -0.933270     5.227845
O     1.418530    -1.467046     5.804563
H     1.484336    -1.122540     6.704364
H     5.223759    -2.020263    -5.662049
O     5.574334    -2.785307    -6.183007
H     5.295934    -3.576465    -5.669743
H     5.626416    -5.235747     4.713201
O     5.097446    -5.152650     5.535780
H     4.376594    -5.784331     5.442667
H    -4.066014     1.229154     6.949815
O    -3.936461     1.887383     7.677450
H    -4.839278     2.203682     7.924429
H    -1.872137     9.608883    -0.747356
O    -2.736472     9.481840    -0.280437
H    -3.344541     10.110657    -0.672592
H    -5.952648     4.689054    -2.984068
O    -6.858154     4.571418    -3.336990
H    -6.762069     3.869992    -4.014264
H     0.074154    -7.070263    -1.167342
O     0.532063    -7.508425    -0.417013
H    -0.152667    -7.704370     0.225695
H    -7.649770     3.788678    -2.035551
O    -7.918113     3.200480    -1.299129
H    -7.771418     2.292339    -1.638414
H     3.883003    -0.919347     7.009074
O     3.891637     0.045048     7.007599
H     4.705852     0.337036     6.580849
H     2.239746     5.789959    -1.154393
O     3.174564     5.497292    -1.033706
H     3.357284     4.958786    -1.826589
H     6.514918    -5.941340     0.704423
O     6.141881    -6.678819     1.233449
H     5.235548    -6.402025     1.453460
H    -3.913513     4.906573     7.770156
O    -3.340806     4.468213     7.099840
H    -3.572062     3.519418     7.144614
H     5.730521    -7.955818     0.159286
O     5.447824    -8.641688    -0.481890
H     4.622054    -8.315142    -0.882441
H    -0.627749     2.063102     7.638407
O    -1.242487     1.949033     6.894313
H    -2.084441     1.703053     7.289613
H    -6.418330    -0.130936     1.003249
O    -6.732649    -0.213897     0.087890
H    -7.652417    -0.481279     0.101204
H    -5.398710    -3.069402    -0.646007
O    -5.149027    -2.369650    -0.016787
H    -5.717927    -1.595676    -0.204231
H     4.286320     5.567503     0.361542
O     4.613125     5.666173     1.269570
H     3.914823     6.175246     1.717410
H    -9.055154    -1.747066    -2.338703
O    -8.512933    -1.547235    -1.548472
H    -8.645725    -2.283982    -0.912258
H    -5.507644     3.476264    -5.572304
O    -6.028610     2.764709    -5.163734
H    -5.365769     2.178470    -4.745049
H     3.197727    -0.884378    -5.638182
O     2.345804    -1.003097    -6.111599
H     2.434861    -1.851236    -6.585841
H     8.134591    -1.345744    -5.972446
O     8.139071    -2.210822    -5.517972
H     7.284799    -2.609995    -5.776350
H     7.643382     0.995348    -6.251758
O     7.458047     0.148048    -6.668690
H     6.477015     0.098146    -6.713206
H    -7.897656    -3.699796     0.852354
O    -8.569700    -3.593177     0.161863
H    -8.465964    -4.351633    -0.440011
H    -2.444450     8.726899     1.284106
O    -2.299963     8.137019     2.037231
H    -1.528656     7.583454     1.819773
H    -4.504283     6.425289     3.457898
O    -4.666576     6.852710     2.599883
H    -3.900975     7.437995     2.470526
H     3.401552     3.445587    -3.548810
O     3.247539     4.414633    -3.454587
H     2.283482     4.479424    -3.569690
H    -6.117356    -1.604147    -3.503089
O    -6.206759    -2.186029    -2.721840
H    -6.994021    -1.879419    -2.217727
H     6.397837     1.028375     4.789548
O     5.998403     1.565762     5.490537
H     6.188521     2.485005     5.202026
H     1.380402     1.727080    -5.814695
O     1.179628     1.129660    -5.063378
H     1.545018     0.267048    -5.331965
H    -2.743351     3.005505     10.425299
O    -2.565378     2.094746     10.123544
H    -3.034787     2.027513     9.266529
H     7.571611    -0.515385     3.138298
O     6.820667     0.060391     3.302652
H     6.124834    -0.540508     3.674506
H    -5.684297    -8.059173    -0.773393
O    -4.954926    -8.129374    -0.120940
H    -4.963434    -7.313124     0.402722
H    -5.168392    -0.114733    -4.764763
O    -5.783238    -0.825894    -5.012054
H    -6.619861    -0.383723    -5.215424
H     1.921940    -0.189938    -7.507098
O     1.727510     0.283622    -8.351730
H     2.309493    -0.120482    -9.000793
H     4.919064    -1.381559    -9.274153
O     3.996302    -1.151983    -9.563554
H     3.983781    -1.268231    -10.512917
H     7.498996    -2.590319     4.249064
O     7.653903    -2.624173     3.290775
H     7.162616    -3.414217     3.012878
H     6.668042    -5.910559     2.718967
O     6.724165    -5.237177     3.422340
H     7.596629    -5.323381     3.846964
H    -1.877750     8.933232     3.493668
O    -1.637230     9.237712     4.394003
H    -2.489898     9.365724     4.843980
H    -7.376521     1.572784    -5.314296
O    -7.953574     0.828036    -5.076447
H    -8.855704     1.227781    -5.006429
H     6.965239    -1.073561    -8.356769
O     6.385763    -1.794219    -8.626879
H     6.150769    -2.245675    -7.797744
H    -1.647257     6.249460    -7.029293
O    -2.047446     5.423520    -6.761192
H    -1.807190     5.290417    -5.795707
H    -0.184218     3.367970     8.975607
O     0.091013     2.467046     9.257644
H    -0.696069     2.167086     9.749805
H     6.748404    -2.782962    -2.662868
O     6.215096    -3.527959    -2.327967
H     6.685267    -4.338276    -2.572822
H    -4.067447    -3.068771    -4.990733
O    -4.213590    -2.953922    -5.956568
H    -4.760354    -2.160667    -6.015227
H     1.858557     2.132533     8.487318
O     2.527840     2.257424     7.805450
H     2.963396     1.394339     7.686140
H    -6.926852    -5.204846    -1.470701
O    -7.840362    -5.474156    -1.724395
H    -7.966826    -5.068936    -2.607182
H    -3.897224     5.261719     5.656562
O    -3.865355     6.025616     5.057634
H    -2.932188     6.318620     5.160501
H    -7.898224     0.086188    -2.035999
O    -7.405283     0.810209    -2.445078
H    -7.626407     0.800738    -3.399873
H     5.804467     0.119931     0.453485
O     5.577735     0.840231     1.074003
H     6.080979     0.643264     1.890789
H    -6.491321     3.365722     7.314050
O    -6.302596     2.963240     8.199307
H    -6.858581     2.177431     8.284650
H     2.253152    -8.080039    -0.850459
O     2.936570    -8.066570    -1.540405
H     2.716473    -8.778942    -2.157211
H    -2.724565    -3.954581    -6.235155
O    -1.972741    -4.521380    -5.998747
H    -1.703832    -4.231948    -5.098625
H    -5.724095     3.717151     5.279285
O    -6.388528     4.117084     5.879079
H    -6.214310     5.059691     5.873623
H    -1.023569    -7.114806    -3.195156
O    -0.555121    -6.446641    -2.661462
H     0.355262    -6.376186    -3.034965
H     4.372231     1.995640     5.165801
O     3.431819     2.235884     5.038108
H     3.037600     2.249636     5.915261
H     4.027640     4.634617     6.338040
O     4.115527     5.365551     5.721953
H     3.553499     5.127515     4.945959
H     2.701379     3.600218     3.946823
O     2.527803     4.541110     3.781887
H     2.415149     4.642051     2.814852
H     9.372533     0.203088    -1.000087
O     8.562780     0.365485    -0.512522
H     8.382294    -0.454434    -0.022911
H    -2.209194     5.297464     10.634326
O    -2.940978     4.677640     10.861777
H    -3.163194     4.859024     11.774939
H     7.939855    -3.019930     0.379409
O     8.359386    -2.174088     0.639883
H     8.285377    -2.171044     1.601598
H     5.312883     3.647276     3.570893
O     5.963172     3.910483     4.243942
H     5.546281     4.627870     4.743234
H    -4.289960     5.077749     9.734079
O    -4.902603     5.260406     9.002492
H    -5.536662     4.531369     8.976951
H    -7.013057    -3.476050    -3.556698
O    -7.629738    -4.087105    -4.011657
H    -7.102898    -4.527357    -4.710604
H    -0.085571     6.102261     10.773667
O    -0.949608     6.433203     10.523996
H    -0.831528     6.862865     9.657152
H     2.593392     1.496628    -4.087331
O     3.470220     1.848142    -3.841149
H     3.783613     1.331847    -3.068653
H    -6.524245    -0.489364     7.770815
O    -6.619877     0.036373     8.590149
H    -7.299521    -0.430356     9.085505
H    -2.768719    -9.878325    -0.881440
O    -2.703822    -8.936388    -1.038787
H    -3.611402    -8.569880    -0.804307
H    -10.057385     3.081421    -4.980117
O    -10.177566     2.163464    -4.702357
H    -10.400278     2.245799    -3.753992
H    -2.134008    -3.051985     4.555596
O    -3.003871    -3.502833     4.618291
H    -2.991764    -4.116275     3.858705
H    -0.229520    -7.995764     2.458926
O     0.593141    -7.786682     2.914311
H     1.316224    -8.081228     2.332750
H     6.622575    -2.398537     6.434841
O     7.076052    -3.107761     5.974388
H     6.446051    -3.842180     5.928885
H    -5.233146    -2.144342     6.783305
O    -6.002190    -1.643246     6.441985
H    -6.070466    -1.961738     5.516167
H     0.865441     3.040353    -7.107704
O     1.783540     2.709711    -7.157604
H     1.774326     1.963262    -7.784760
H    -4.035160     8.734926     6.651835
O    -4.027295     8.739931     5.694477
H    -4.148809     7.813260     5.419563
H    -2.064446     10.312858    -2.739506
O    -2.963370     10.495997    -3.048488
H    -2.885060     11.130732    -3.759994
H     9.346301    -4.079646     4.105605
O     9.062123    -4.758990     4.724850
H     8.626156    -4.288103     5.446087
H    -0.718419    -5.991261    -5.866333
O    -0.017733    -6.559092    -5.529177
H     0.819595    -6.097058    -5.738611
H     1.791937     8.266040     0.689991
O     1.496381     8.590180    -0.189320
H     2.315417     8.628569    -0.712946
H     3.523633     2.935512    -6.634036
O     4.347897     2.644280    -6.218735
H     4.095204     2.368887    -5.312375
H     3.715157     7.119155    -1.190926
O     3.923582     8.055145    -1.400867
H     4.299662     8.000495    -2.291399
H     4.429651     0.001189    -7.882391
O     4.800447     0.145478    -7.009948
H     4.616602     1.076797    -6.765488
H     6.004847     1.925313    -0.428868
O     6.576680     2.119675    -1.185463
H     7.399399     1.639336    -0.985492
H     6.665068    -8.437492    -1.577143
O     7.307074    -8.225776    -2.308158
H     7.674267    -9.059870    -2.595849
H    -5.288612    -5.781956    -5.469757
O    -5.903082    -5.109428    -5.788636
H    -5.349917    -4.340550    -6.018541
H     0.592440     7.152378     7.613196
O    -0.310667     7.176743     7.968804
H    -0.862857     7.188817     7.148620
H    -8.894122    -2.829515    -4.187169
O    -9.416792    -2.021769    -4.022908
H    -9.124337    -1.354900    -4.647993
H    -2.423473    -5.990162    -2.182934
O    -3.299550    -5.703449    -2.457761
H    -3.479767    -6.075735    -3.345889
H    -2.973954    -5.894088    -5.453347
O    -3.577693    -6.505032    -4.987584
H    -3.097096    -7.325596    -4.818646
H    -1.362413     3.734968    -6.992670
O    -0.824177     2.978513    -6.719658
H    -1.057508     2.194576    -7.272742
H    -0.167261     0.427678    -8.223150
O    -1.065545     0.662549    -7.946699
H    -1.247249     0.137726    -7.150989
H    -10.428950     4.054930    -2.816339
O    -10.501814     3.274576    -2.251274
H    -9.676723     3.246064    -1.735362
H     4.537024     4.068248     1.760409
O     4.327226     3.146735     2.036037
H     5.044593     2.571323     1.757627
H     6.490560     1.398307    -4.170143
O     6.182002     0.772673    -3.479991
H     6.205749     1.266416    -2.634928
H     9.610016    -2.233977    -0.862465
O     9.894138    -2.017688    -1.759465
H     9.097482    -1.677789    -2.208691
H     9.963797    -3.324124    -3.031047
O     9.702490    -3.974637    -3.709712
H     9.314415    -3.465409    -4.431895
H    -7.717380    -8.575296    -1.752772
O    -6.977956    -7.981649    -1.875040
H    -7.354788    -7.068133    -1.866380
H     4.163168     6.080919    -3.780675
O     4.823983     6.781678    -3.689518
H     5.658712     6.327069    -3.545406
H     0.108057    -8.166055    -5.239723
O     0.130951    -9.149313    -5.110132
H     0.288224    -9.510797    -5.982441
H    -2.342858    -8.673749    -2.760807
O    -2.101503    -8.408530    -3.667987
H    -1.451993    -9.026422    -4.022408
H     2.179276    -10.816572    -3.509509
O     2.133574    -9.862063    -3.483409
H     1.352570    -9.589626    -4.015352
H     6.843513     3.331462    -4.518387
O     6.907506     2.654848    -5.220294
H     6.118293     2.789002    -5.766974
H    -3.581924    -3.793409     7.592525
O    -3.607462    -2.997051     7.054640
H    -3.394800    -3.298093     6.141028
H    -0.614118    -3.354304    -6.743408
O     0.016551    -2.623188    -6.744569
H    -0.467516    -1.848246    -6.404884
H     0.763144     0.400960     8.522146
O     0.719519    -0.511764     8.221228
H    -0.239483    -0.695260     8.167833
H    -5.828242     7.371557    -4.289977
O    -6.326811     6.754182    -4.856491
H    -6.618242     6.021659    -4.269273
H    -4.279938     9.104590    -3.285789
O    -4.816799     8.308452    -3.185744
H    -4.414712     7.827036    -2.444527
H    -9.702025     5.802784    -4.719905
O    -10.236905     4.997919    -4.562456
H    -11.115029     5.199816    -4.887360
H     2.689763     6.494245     6.169106
O     1.729125     6.590960     6.260255
H     1.385294     5.678027     6.153860
H     4.775235     8.538672     0.134414
O     5.086148     8.537895     1.057562
H     5.490183     7.672515     1.190345
H     4.146844    -7.424469    -4.332038
O     3.393631    -7.708118    -4.881669
H     3.109643    -8.549568    -4.509444
H     0.314676     8.643898     4.247828
O     0.995321     8.000489     4.024895
H     1.213134     7.504895     4.840216
H     5.231872     4.189857    -3.112874
O     6.192879     4.159413    -3.052448
H     6.395485     3.576551    -2.303978
H    -2.424867    -1.566936     7.537465
O    -2.056669    -0.772821     7.952842
H    -2.647580    -0.653999     8.721982
H    -9.022550     7.940759    -4.209249
O    -8.953134     7.358893    -4.967588
H    -7.994945     7.194313    -5.094564
H     3.490771    -8.989689     1.091456
O     2.811983    -8.359105     1.337555
H     3.284067    -7.554152     1.622758
H     3.541334     8.160836     1.869425
O     2.750266     7.596771     1.973594
H     2.296633     7.830560     2.796281
N    -3.932836    -0.461227     10.058857
H    -4.762493    -0.241059     9.606787
H    -3.628520     0.384285     10.427298
