45

H    -0.146464    -1.264852     3.066990
O     0.336754    -0.571805     2.586919
H    -0.124225     0.252307     2.828267
H    -0.348831    -3.566305     3.687752
O    -0.726858    -2.764491     4.086443
H    -0.479870    -2.825846     5.038415
H     1.949408    -1.786793     2.961480
O     2.040682    -2.744262     2.827717
H     1.430964    -2.928833     2.082868
H    -2.518222     0.280911     3.309164
O    -2.779921    -0.541393     3.785279
H    -2.025307    -0.605177     4.408260
H    -0.948049     0.627044     6.008818
O    -0.668227     0.081279     5.247306
H     0.120307    -0.430988     5.556702
H     0.618649    -5.108670     1.905490
O     0.104392    -5.170729     2.736653
H     0.200009    -6.107067     2.990386
H     1.873138    -3.611870     4.432239
O     1.979924    -4.094469     5.279186
H     2.664365    -3.565225     5.750231
H     4.497410    -2.355470     5.625713
O     4.180124    -2.861834     6.413796
H     4.545866    -3.755905     6.265620
H     2.290528    -5.707079     4.866317
O     2.680870    -6.574612     4.595541
H     1.954284    -7.155435     4.347674
H     2.065568    -0.703666     5.253395
O     1.536570    -1.142592     5.947317
H     1.679702    -0.644480     6.766835
H    -2.337165    -3.161078     4.398021
O    -3.198119    -3.607861     4.596298
H    -3.241189    -4.262304     3.876613
H    -3.669035    -3.549972     7.784527
O    -3.753159    -2.865364     7.119908
H    -3.558832    -3.297951     6.253665
H     0.540741     0.518752     8.962732
O     0.487686    -0.270092     8.410223
H    -0.472987    -0.401488     8.283028
H    -2.711661    -1.444287     7.551171
O    -2.229622    -0.646334     7.849407
H    -2.901906    -0.068963     8.229939
N    -0.284049    -3.372751     6.707193
H     0.579181    -3.709332     6.389033
H    -0.034618    -2.596577     7.220539
