12

H     8.740168    -5.082379    -2.860350
O     8.050324    -5.495537    -2.320725
H     8.119321    -6.459113    -2.365925
H     6.680002    -8.465707    -1.511482
O     7.325448    -8.176478    -2.213451
H     7.619821    -8.978807    -2.646464
H     9.981982    -3.187158    -3.165456
O     9.713930    -3.836974    -3.846805
H     9.287654    -3.318222    -4.548616
N     10.504254    -6.613637    -4.113813
H     11.438124    -6.799989    -3.987456
H     10.462975    -5.647407    -4.196671
