603

H     0.217029     3.041583    -0.679214
O     0.741376     2.372388    -1.169853
H     1.679227     2.501146    -0.894168
H    -0.074941    -1.304310     3.141546
O     0.320247    -0.603577     2.600267
H    -0.157851     0.210015     2.832575
H    -2.381944     2.423763    -0.546084
O    -2.175493     1.950057     0.278050
H    -2.191890     1.003117     0.049725
H    -4.656943     0.555968     2.160902
O    -4.974812    -0.377406     2.171240
H    -4.468203    -0.853448     1.505025
H     0.073667    -0.301310     0.944464
O    -0.120325    -0.064019     0.017191
H     0.218268     0.833257    -0.101521
H    -0.156886    -3.575999     3.763507
O    -0.436713    -2.746805     4.185073
H     0.207538    -2.577800     4.888952
H    -4.875896     2.541172     1.313975
O    -4.238429     2.129169     1.929219
H    -3.394715     2.111955     1.417461
H    -3.226334     3.914947    -2.218874
O    -2.488586     3.320434    -1.983624
H    -2.137131     3.022885    -2.845111
H    -0.117931    -3.796749     0.488186
O     0.221667    -2.981025     0.909509
H    -0.566168    -2.493732     1.218974
H    -2.374711    -1.532513     2.451307
O    -2.183640    -1.997458     1.610341
H    -2.438818    -1.408514     0.880863
H     2.087666    -1.433922    -1.124310
O     2.316377    -1.689840    -0.206801
H     1.525062    -2.116401     0.173745
H    -1.384535     1.829959     1.903577
O    -1.477472     1.430831     2.779005
H    -1.464891     2.142139     3.444997
H     0.224004    -2.691978    -1.580661
O    -0.531781    -2.080984    -1.636736
H    -0.354287    -1.354056    -1.002807
H    -3.425552    -2.912440    -0.415172
O    -2.708128    -3.405027    -0.835120
H    -1.996613    -2.774424    -1.049901
H     2.775284     0.128496     2.935856
O     2.871605    -0.056182     3.897496
H     2.961981     0.835883     4.304192
H    -3.509642     6.393290    -0.549475
O    -3.268149     7.058374    -1.245958
H    -3.127194     7.901534    -0.772321
H     3.910565     0.586436     1.192310
O     2.959741     0.404687     1.305542
H     2.723415    -0.345636     0.723117
H    -5.762397     0.861432    -1.625401
O    -4.853287     1.185752    -1.486915
H    -4.966482     2.014750    -0.977931
H    -1.202163     5.402286     2.210256
O    -1.827538     4.656058     2.090746
H    -1.908184     4.235724     2.952100
H     3.506530     2.767299     0.435290
O     3.262549     2.727382    -0.504902
H     3.594376     1.884892    -0.856202
H     1.506793    -4.685198    -2.262990
O     1.570109    -3.909500    -1.687753
H     2.365893    -3.447613    -2.035139
H    -0.903105    -0.068246    -2.557967
O    -0.258367     0.576534    -2.876635
H    -0.006784     1.163351    -2.140484
H     1.707751    -4.678001    -0.190595
O     1.811895    -5.317051     0.550783
H     1.348438    -6.126922     0.251622
H    -1.207920    -3.248546    -2.899356
O    -1.033808    -3.931968    -3.560275
H    -0.909267    -4.779182    -3.091430
H    -2.780759     3.310228     4.695345
O    -1.799415     3.306898     4.664817
H    -1.509686     2.902807     5.500951
H     0.965528     5.033827     4.082269
O     0.019600     5.266983     4.132907
H    -0.454093     4.463467     4.386485
H    -1.721506    -4.639003    -0.393919
O    -0.958063    -5.182203    -0.108604
H    -1.308109    -5.868834     0.468345
H    -3.891251     5.849263    -2.609026
O    -4.246448     5.016545    -2.936562
H    -4.088393     4.977348    -3.905118
H    -2.428284    -3.682061     1.913483
O    -2.448782    -4.587404     2.286763
H    -1.509709    -4.826346     2.430327
H    -4.676280    -2.960091    -2.928191
O    -3.824191    -3.195924    -3.333087
H    -3.494713    -3.988228    -2.865008
H     0.337610     1.375638     4.611620
O     0.846136     2.135620     4.281578
H     0.892547     2.793427     4.989641
H    -4.642751    -5.153864    -1.603423
O    -5.346855    -4.801524    -1.031856
H    -5.136485    -5.156849    -0.147369
H     2.345600    -6.467143    -4.053055
O     2.005648    -6.140080    -3.200091
H     2.437714    -6.715134    -2.536366
H     0.487652    -3.361708    -4.018961
O     1.292964    -2.996905    -4.439084
H     0.978092    -2.620215    -5.286357
H     1.964967    -1.752395     2.977049
O     2.120043    -2.683073     2.758496
H     1.436056    -2.894421     2.088803
H    -3.004048    -1.832782    -3.170326
O    -2.563206    -0.950496    -3.134370
H    -3.241133    -0.300244    -3.407924
H    -3.177723     4.984969     1.072361
O    -3.957778     5.360505     0.616931
H    -4.374521     5.916960     1.322922
H     0.881763     2.255939     2.591511
O     0.985674     2.253407     1.620698
H     1.712353     1.629878     1.456955
H     0.208846     5.666348    -0.753991
O     0.734184     6.329226    -1.258160
H     0.873440     7.127668    -0.700156
H     0.353442     7.038931     2.599563
O    -0.006826     6.660661     1.780424
H     0.657067     5.989908     1.519053
H    -2.478626     0.219426     3.326227
O    -2.702898    -0.595437     3.828969
H    -1.944212    -0.636905     4.452769
H    -0.900550     0.550753     6.016440
O    -0.624879     0.032338     5.241926
H     0.087464    -0.572079     5.529343
H     0.710800    -4.990162     1.964772
O     0.165855    -5.101399     2.767177
H     0.309223    -6.022574     3.037902
H    -2.115936    -8.078351     0.417377
O    -1.795400    -7.592974     1.204835
H    -2.582620    -7.281208     1.658939
H    -0.353993     6.878195    -2.318909
O    -1.097730     7.302758    -2.817927
H    -1.890366     7.172706    -2.258869
H    -1.100283     4.318140     0.570649
O    -0.723539     4.381450    -0.323428
H    -1.428050     4.140287    -0.959911
H    -4.405951     2.752945     3.491626
O    -4.407906     2.921237     4.456737
H    -4.493024     2.037335     4.863475
H     2.019228    -3.584478     4.235548
O     1.952920    -4.058899     5.087420
H     2.457996    -3.523677     5.720886
H     4.693833    -3.192401     0.839291
O     4.536456    -3.114864    -0.127549
H     3.678262    -2.636261    -0.212566
H    -2.707505    -0.733070    -1.369983
O    -3.037539    -0.467522    -0.495044
H    -3.835758     0.062203    -0.703015
H    -1.549939    -0.808971    -4.650481
O    -0.992446    -0.550523    -5.413258
H    -0.265814    -0.032393    -5.036177
H     1.815895    -1.700843    -3.382041
O     1.908412    -0.956287    -2.756842
H     1.130480    -0.378144    -2.885557
H     3.663888    -3.122430     2.547878
O     4.622945    -3.352412     2.477126
H     4.676279    -4.312811     2.602224
H     3.422472    -6.122865     3.113428
O     3.781015    -5.921020     2.214568
H     3.045667    -5.572856     1.670331
H    -3.325381     1.597627    -4.129534
O    -4.190273     1.152006    -3.923103
H    -4.379772     1.308598    -2.960669
H    -5.066989     4.161836     0.052400
O    -5.508761     3.297194    -0.049291
H    -6.436374     3.418536    -0.337950
H     6.748670    -1.177694    -1.352212
O     5.975210    -1.028611    -0.802015
H     5.554396    -1.896214    -0.607921
H     4.609842    -3.159562    -2.470453
O     3.743497    -2.986940    -2.888910
H     3.748709    -3.604024    -3.646290
H     4.427047    -2.301330     5.622884
O     4.081656    -2.768339     6.414124
H     4.415863    -3.673526     6.331287
H    -0.752276     6.336534     5.079088
O    -1.349904     6.911937     5.616715
H    -1.361403     7.789795     5.176726
H     4.714224    -0.129774    -1.459579
O     3.948490     0.414126    -1.723609
H     3.256076    -0.184655    -2.057239
H    -0.718147     4.539125    -4.038028
O    -1.496946     5.087439    -4.245467
H    -1.342769     5.952422    -3.822039
H     0.680967     3.217416    -2.657327
O     0.695232     3.597382    -3.563987
H     0.733610     2.836165    -4.152875
H    -5.382725    -5.182996     1.759253
O    -4.685708    -5.777918     1.404829
H    -3.845531    -5.363343     1.678790
H     7.903137    -1.681131    -4.021233
O     7.643106    -1.369723    -3.121697
H     7.157294    -0.525004    -3.277670
H     3.723542    -5.056839    -5.296919
O     4.485225    -4.685138    -4.813436
H     4.867242    -5.397339    -4.267452
H    -3.787934     0.020493     4.915679
O    -4.389969     0.483479     5.548019
H    -5.051873    -0.174491     5.835985
H     3.471750    -5.936200    -0.528873
O     4.345481    -5.689295    -0.844150
H     4.422340    -4.727322    -0.697906
H     5.023129    -0.323393    -4.154275
O     4.489089    -1.034104    -4.547200
H     4.159877    -1.617869    -3.831129
H    -1.118059     1.596856    -3.894817
O    -1.798693     2.197783    -4.258457
H    -1.474785     2.543906    -5.116767
H     4.896981    -6.313631    -2.321203
O     5.231917    -6.637453    -3.186544
H     6.049092    -7.119192    -2.998415
H     8.755363    -5.086218    -2.910525
O     8.062046    -5.504469    -2.355100
H     8.096041    -6.461616    -2.458935
H     2.351995     4.725172     0.460702
O     1.771672     4.705953     1.231045
H     1.412123     3.786174     1.304952
H    -4.419867    -2.629876     4.204962
O    -5.312945    -2.289235     4.000503
H    -5.173460    -1.507005     3.426897
H    -5.842224    -3.183800     1.285479
O    -6.307723    -3.741871     1.951299
H    -6.121153    -3.308247     2.803245
H     1.680241     3.461458     6.867442
O     1.059305     3.978626     6.332867
H     0.274760     4.131316     6.902334
H     4.998863    -2.173065     3.619109
O     5.018203    -1.456315     4.284846
H     4.207328    -0.898748     4.126882
H     2.381905    -5.580329     4.826589
O     2.761676    -6.464239     4.566074
H     2.016433    -7.044471     4.388635
H     2.284392    -4.496090    -6.800125
O     2.111568    -4.986265    -5.986359
H     1.846002    -4.296085    -5.329930
H     6.448133    -4.100276    -0.499888
O     7.199643    -4.505121    -0.035410
H     7.708712    -4.926635    -0.755618
H    -1.732972     4.484476     7.697769
O    -0.835329     4.581082     8.086399
H    -0.653512     5.540037     8.112742
H    -5.134579     5.808711    -5.534186
O    -4.522728     5.045041    -5.614205
H    -3.756605     5.332770    -6.139301
H     3.315542    -2.504494    -8.439567
O     3.224833    -3.039864    -7.640437
H     4.099816    -3.016704    -7.208035
H    -0.635111     8.840830    -2.268847
O    -0.511777     9.669065    -1.748868
H     0.248474     9.492256    -1.170295
H     2.060652    -0.916495     5.208253
O     1.486116    -1.443368     5.793146
H     1.577414    -1.099579     6.691201
H     5.231266    -2.009309    -5.689344
O     5.578017    -2.774876    -6.212278
H     5.302465    -3.565549    -5.696788
H     5.686927    -5.221751     4.684846
O     5.162616    -5.138248     5.510350
H     4.440524    -5.769090     5.421261
H    -3.983312     1.144602     6.990029
O    -3.793417     1.618305     7.835608
H    -4.669878     2.004374     8.094396
H    -1.828607     9.627044    -0.739067
O    -2.690227     9.501642    -0.266307
H    -3.300201     10.129774    -0.656651
H    -5.922798     4.707998    -2.961245
O    -6.829747     4.584934    -3.310518
H    -6.730692     3.887512    -3.990196
H     0.101629    -7.053571    -1.164191
O     0.563286    -7.492117    -0.416525
H    -0.117752    -7.686923     0.230401
H    -7.615220     3.811092    -2.000005
O    -7.881973     3.225106    -1.260972
H    -7.737312     2.316200    -1.598920
H     3.962567    -0.901958     6.988807
O     3.972335     0.062200     6.982283
H     4.785817     0.352348     6.553058
H     2.277855     5.805001    -1.168499
O     3.213203     5.511616    -1.052599
H     3.390884     4.972678    -1.846437
H     6.553453    -5.929168     0.671975
O     6.182642    -6.666425     1.202906
H     5.277765    -6.388883     1.427916
H    -3.876701     4.726277     7.771364
O    -3.308343     4.264160     7.113467
H    -3.503188     3.320735     7.221151
H     5.765287    -7.943201     0.131611
O     5.478835    -8.628873    -0.508180
H     4.651001    -8.301847    -0.903983
H    -0.567876     2.035759     7.688485
O    -1.199059     1.973090     6.951537
H    -2.068860     1.831639     7.345207
H    -6.374841    -0.107897     1.035923
O    -6.694282    -0.192005     0.122804
H    -7.613599    -0.460338     0.139848
H    -5.362995    -3.048174    -0.618306
O    -5.112361    -2.348365     0.010467
H    -5.679958    -1.573507    -0.176872
H     4.332090     5.581559     0.336313
O     4.664002     5.680258     1.242543
H     3.968597     6.190030     1.694022
H    -9.029275    -1.723611    -2.290043
O    -8.482201    -1.524289    -1.503312
H    -8.611932    -2.261271    -0.866486
H    -5.504637     3.531467    -5.586576
O    -6.016925     2.819250    -5.154278
H    -5.337787     2.301163    -4.670313
H     3.206183    -0.871257    -5.655392
O     2.352134    -0.989670    -6.125119
H     2.438815    -1.838128    -6.599019
H     8.140805    -1.337080    -6.015778
O     8.147185    -2.202173    -5.561339
H     7.291186    -2.600705    -5.814747
H     7.650187     1.004015    -6.293211
O     7.461720     0.156912    -6.709184
H     6.480391     0.107949    -6.747856
H    -7.856492    -3.677035     0.892529
O    -8.533084    -3.568893     0.206462
H    -8.433432    -4.327375    -0.396081
H    -2.392462     8.745706     1.295932
O    -2.244105     8.155953     2.048557
H    -1.474281     7.602091     1.826397
H    -4.437302     6.442481     3.489367
O    -4.605213     6.870740     2.633601
H    -3.840504     7.455629     2.496599
H     3.425400     3.458978    -3.567893
O     3.272820     4.428162    -3.473252
H     2.307915     4.492900    -3.583239
H    -6.095545    -1.579535    -3.474572
O    -6.182741    -2.162382    -2.694200
H    -6.965841    -1.854994    -2.184263
H     6.465282     1.043072     4.752982
O     6.070099     1.580673     5.456149
H     6.258987     2.499860     5.167063
H     1.389423     1.742936    -5.820933
O     1.197039     1.144413    -5.068501
H     1.560548     0.282486    -5.341234
H    -2.507068     2.954632     10.475029
O    -2.295109     2.047222     10.200904
H    -2.890562     1.849633     9.466121
H     7.628291    -0.502970     3.097386
O     6.878392     0.073157     3.265108
H     6.184285    -0.527034     3.641392
H    -5.654755    -8.037989    -0.740184
O    -4.921989    -8.108846    -0.091714
H    -4.926230    -7.292449     0.431748
H    -5.201626    -0.095218    -4.692554
O    -5.798948    -0.813800    -4.977212
H    -6.661621    -0.378794    -5.110614
H     1.912342    -0.176292    -7.519286
O     1.704589     0.291225    -8.364043
H     2.293918    -0.104040    -9.012222
H     4.907589    -1.370293    -9.299433
O     3.983675    -1.139533    -9.584595
H     3.966949    -1.256975    -10.533738
H     7.559180    -2.577588     4.209624
O     7.709294    -2.612384     3.250601
H     7.215464    -3.401893     2.975759
H     6.717492    -5.898185     2.685609
O     6.777708    -5.224469     3.388259
H     7.652343    -5.310951     3.808412
H    -1.812061     8.951883     3.501723
O    -1.567040     9.254713     4.401542
H    -2.417215     9.387062     4.854419
H    -7.405228     1.683108    -5.237168
O    -7.965982     0.912988    -5.014448
H    -8.877298     1.292316    -4.910027
H     6.958903    -1.064765    -8.393891
O     6.377096    -1.784805    -8.660707
H     6.146508    -2.235967    -7.830157
H    -1.634355     6.308982    -6.945963
O    -2.014042     5.464843    -6.685614
H    -1.769483     5.358569    -5.714841
H    -0.012371     3.302854     9.022438
O     0.183125     2.382522     9.276785
H    -0.617102     2.118180     9.780111
H     6.771471    -2.772297    -2.697931
O     6.239485    -3.516890    -2.360035
H     6.708180    -4.327553    -2.606532
H    -4.078682    -3.102513    -4.912627
O    -4.200726    -2.993220    -5.885318
H    -4.735832    -2.188346    -5.945096
H     1.967516     2.174701     8.468221
O     2.633597     2.287892     7.780443
H     3.055262     1.417478     7.664409
H    -6.898716    -5.182821    -1.432301
O    -7.813876    -5.451021    -1.681371
H    -7.944573    -5.046393    -2.563658
H    -3.828541     5.258586     5.689084
O    -3.793543     6.028417     5.100300
H    -2.859471     6.321523     5.197145
H    -7.869718     0.107929    -1.995432
O    -7.379071     0.832278    -2.406319
H    -7.602654     0.824210    -3.359991
H     5.846520     0.132624     0.422035
O     5.623701     0.853322     1.043467
H     6.131203     0.656241     1.857590
H    -6.223449     3.313192     7.377412
O    -6.098781     2.793268     8.205556
H    -6.699426     2.032659     8.113903
H     2.282934    -8.065243    -0.857711
O     2.961729    -8.052103    -1.552206
H     2.737856    -8.764970    -2.167042
H    -2.721291    -3.937154    -6.218109
O    -1.968922    -4.504225    -5.986207
H    -1.694210    -4.215747    -5.087116
H    -5.645650     3.766674     5.292991
O    -6.295975     4.162713     5.909342
H    -6.131450     5.106625     5.897882
H    -1.006125    -7.098378    -3.186368
O    -0.534922    -6.429816    -2.655747
H     0.374029    -6.360697    -3.033202
H     4.441666     2.011862     5.138940
O     3.500640     2.252216     5.016599
H     3.113727     2.267369     5.897337
H     4.105610     4.650693     6.314874
O     4.189241     5.381925     5.698451
H     3.623546     5.143451     4.925396
H     2.766892     3.616860     3.930760
O     2.591021     4.557506     3.766257
H     2.474006     4.657957     2.799608
H     9.407007     0.212402    -1.050577
O     8.599857     0.375481    -0.558970
H     8.421409    -0.443986    -0.067874
H    -2.116708     5.313094     10.647847
O    -2.839886     4.684759     10.876193
H    -3.060753     4.860851     11.790978
H     7.979085    -3.008938     0.338132
O     8.400780    -2.163393     0.595934
H     8.331737    -2.159811     1.558032
H     5.374440     3.662291     3.540592
O     6.028858     3.925739     4.209530
H     5.615223     4.643276     4.711212
H    -4.222738     5.018564     9.775449
O    -4.853872     5.171547     9.052164
H    -5.466126     4.423268     9.046304
H    -6.994243    -3.454080    -3.519641
O    -7.614036    -4.064798    -3.971038
H    -7.091188    -4.506662    -4.671805
H     0.012111     6.118974     10.775637
O    -0.851386     6.452041     10.526814
H    -0.732812     6.883628     9.661342
H     2.612522     1.512098    -4.101334
O     3.492039     1.861116    -3.860575
H     3.807985     1.345109    -3.089123
H    -6.983886    -0.214542     7.192256
O    -7.492858     0.563640     7.472838
H    -8.113277     0.749466     6.766930
H    -2.740440    -9.859518    -0.862227
O    -2.676153    -8.917777    -1.021021
H    -3.582180    -8.550673    -0.781773
H    -10.041264     3.108200    -4.927229
O    -10.157723     2.189029    -4.651530
H    -10.377225     2.269159    -3.702154
H    -2.074369    -3.020808     4.595882
O    -2.949832    -3.460402     4.662377
H    -2.942237    -4.076491     3.904732
H    -0.183559    -7.977276     2.463749
O     0.641787    -7.768972     2.914542
H     1.361447    -8.064190     2.329100
H     6.695268    -2.384636     6.400426
O     7.145265    -3.094410     5.937402
H     6.514343    -3.828252     5.895874
H    -5.284564    -2.000334     6.918071
O    -5.959373    -1.501114     6.433240
H    -5.940415    -1.876038     5.523226
H     0.873882     3.056031    -7.110691
O     1.790834     2.721715    -7.170444
H     1.772322     1.974073    -7.795568
H    -3.955305     8.758499     6.670996
O    -3.951121     8.758493     5.713634
H    -4.076055     7.831582     5.443502
H    -2.031249     10.330711    -2.730828
O    -2.931769     10.515323    -3.034254
H    -2.856730     11.148725    -3.747301
H     9.404681    -4.068911     4.057118
O     9.122891    -4.747895     4.677848
H     8.691466    -4.276402     5.401428
H    -0.713889    -5.976256    -5.859915
O    -0.012067    -6.544539    -5.526304
H     0.824704    -6.083227    -5.739929
H     1.842232     8.281929     0.678006
O     1.541859     8.606596    -0.199389
H     2.357670     8.643698    -0.728091
H     3.530093     2.947050    -6.653662
O     4.356712     2.655199    -6.243115
H     4.108678     2.381129    -5.334989
H     3.753628     7.132895    -1.213394
O     3.961974     8.068728    -1.424376
H     4.332842     8.013669    -2.317060
H     4.427361     0.012770    -7.906259
O     4.802310     0.156662    -7.035601
H     4.620871     1.088394    -6.790071
H     6.043545     1.937564    -0.462283
O     6.611568     2.131036    -1.221967
H     7.434960     1.650224    -1.026095
H     6.690227    -8.425787    -1.609850
O     7.328463    -8.214717    -2.344381
H     7.695348    -9.048894    -2.632192
H    -5.282007    -5.762288    -5.439978
O    -5.896637    -5.089145    -5.757420
H    -5.343881    -4.320307    -5.988162
H     0.677962     7.169161     7.609507
O    -0.224549     7.197183     7.966585
H    -0.777656     7.213797     7.147414
H    -8.878506    -2.807148    -4.138852
O    -9.399474    -1.998564    -3.973023
H    -9.109901    -1.332763    -4.600392
H    -2.399588    -5.972188    -2.166804
O    -3.277159    -5.685699    -2.437123
H    -3.462141    -6.058204    -3.323942
H    -2.966607    -5.878026    -5.434485
O    -3.569637    -6.487603    -4.966366
H    -3.089243    -7.308460    -4.797814
H    -1.228644     3.807656    -7.001135
O    -0.769965     3.015472    -6.675699
H    -0.988126     2.242640    -7.250803
H    -0.111115     0.436883    -8.234694
O    -1.005424     0.638293    -7.906464
H    -1.076967     0.144890    -7.062747
H    -10.400883     4.079439    -2.763424
O    -10.470494     3.298908    -2.198195
H    -9.642344     3.271044    -1.687013
H     4.589289     4.082583     1.734103
O     4.380289     3.161416     2.011586
H     5.095653     2.585276     1.729573
H     6.508746     1.408785    -4.205686
O     6.203793     0.783287    -3.513807
H     6.231952     1.277408    -2.669073
H     9.643213    -2.224784    -0.913275
O     9.922532    -2.009412    -1.812008
H     9.123770    -1.668759    -2.256907
H     9.984445    -3.316147    -3.083332
O     9.718977    -3.966627    -3.760442
H     9.327527    -3.457229    -4.480668
H    -7.692837    -8.553335    -1.708868
O    -6.954171    -7.959684    -1.835705
H    -7.330696    -7.046194    -1.824644
H     4.186966     6.093706    -3.804796
O     4.848951     6.793958    -3.717803
H     5.684043     6.338688    -3.578026
H     0.114195    -8.151665    -5.236069
O     0.136209    -9.134799    -5.106039
H     0.289690    -9.497134    -5.978669
H    -2.324440    -8.655960    -2.744594
O    -2.088284    -8.391324    -3.653369
H    -1.440769    -9.009574    -4.010861
H     2.192099    -10.802912    -3.514790
O     2.147250    -9.848342    -3.489543
H     1.363405    -9.575799    -4.017085
H     6.861446     3.341429    -4.556297
O     6.921256     2.664684    -5.258506
H     6.129003     2.799323    -5.800700
H    -3.579909    -3.722455     7.697467
O    -3.692396    -2.933648     7.168534
H    -3.438596    -3.171039     6.250467
H    -0.612023    -3.344311    -6.736918
O     0.018044    -2.612916    -6.749696
H    -0.457853    -1.841527    -6.393445
H     0.627220     0.455253     8.748406
O     0.635961    -0.258951     8.107177
H    -0.286387    -0.546404     8.016064
H    -5.806843     7.393708    -4.257026
O    -6.312864     6.780910    -4.821697
H    -6.594165     6.042592    -4.237619
H    -4.250177     9.124307    -3.264788
O    -4.788821     8.330061    -3.159769
H    -4.380886     7.846421    -2.423245
H    -9.681937     5.826355    -4.669974
O    -10.216607     5.021081    -4.511882
H    -11.097156     5.225873    -4.828248
H     2.767761     6.512068     6.152915
O     1.807563     6.609435     6.248954
H     1.463185     5.696773     6.143264
H     4.821568     8.552400     0.105936
O     5.137302     8.551713     1.027486
H     5.542026     7.686338     1.158169
H     4.157577    -7.412400    -4.351036
O     3.400897    -7.695919    -4.896036
H     3.118834    -8.537046    -4.521625
H     0.383446     8.662102     4.244190
O     1.061875     8.017836     4.017184
H     1.285056     7.522893     4.831436
H     5.257972     4.202096    -3.142727
O     6.219318     4.170493    -3.087661
H     6.425320     3.587928    -2.339914
H    -2.590986    -1.545067     7.556456
O    -2.080375    -0.752988     7.779885
H    -2.706698    -0.126463     8.152773
H    -9.000864     7.963054    -4.162533
O    -8.935335     7.380764    -4.920873
H    -7.976952     7.216449    -5.051299
H     3.528494    -8.975400     1.077765
O     2.851373    -8.343691     1.325489
H     3.325557    -7.539085     1.608457
H     3.597309     8.175611     1.847550
O     2.806403     7.612216     1.956919
H     2.357649     7.847200     2.781859
N    -3.710626     1.491742    -7.082417
H    -3.122964     1.085905    -7.731318
H    -4.599014     1.308285    -7.400106
