603

H     0.190712     3.040795    -0.675071
O     0.715296     2.371919    -1.165849
H     1.653374     2.502286    -0.890537
H    -0.089784    -1.292870     3.159711
O     0.303018    -0.592990     2.615576
H    -0.176062     0.220479     2.846109
H    -2.408169     2.418144    -0.536543
O    -2.199377     1.948256     0.288336
H    -2.213855     1.000279     0.063841
H    -4.676363     0.555961     2.177982
O    -4.992119    -0.377931     2.192805
H    -4.486602    -0.855843     1.527088
H     0.054246    -0.296939     0.959255
O    -0.142020    -0.061735     0.031806
H     0.196752     0.835075    -0.089455
H    -0.167508    -3.562363     3.789147
O    -0.448092    -2.732294     4.208648
H     0.197003    -2.560538     4.911079
H    -4.900027     2.538376     1.323959
O    -4.261688     2.129851     1.940794
H    -3.417923     2.112347     1.429483
H    -3.256377     3.902588    -2.216293
O    -2.519000     3.306147    -1.983076
H    -2.158252     3.018069    -2.841680
H    -0.131134    -3.794140     0.515101
O     0.207169    -2.975894     0.932820
H    -0.581248    -2.489595     1.241999
H    -2.390628    -1.527189     2.473424
O    -2.199160    -1.994224     1.633894
H    -2.456301    -1.408556     0.902692
H     2.067902    -1.432693    -1.107857
O     2.297922    -1.684268    -0.189614
H     1.508300    -2.112118     0.193020
H    -1.405542     1.834926     1.913154
O    -1.498729     1.438325     2.789568
H    -1.485380     2.151976     3.453267
H     0.205691    -2.694899    -1.559070
O    -0.550573    -2.084251    -1.615738
H    -0.373005    -1.356595    -0.982779
H    -3.442129    -2.918796    -0.387792
O    -2.723268    -3.410967    -0.805694
H    -2.013392    -2.779919    -1.023886
H     2.757526     0.144740     2.946298
O     2.854693    -0.036406     3.908539
H     2.944651     0.857245     4.311904
H    -3.543419     6.386624    -0.551170
O    -3.303898     7.047924    -1.252163
H    -3.164010     7.894208    -0.783211
H     3.889966     0.599056     1.200333
O     2.939489     0.416045     1.315046
H     2.704133    -0.336803     0.735490
H    -5.787690     0.845868    -1.611072
O    -4.877805     1.173880    -1.482703
H    -4.990659     2.003104    -0.972769
H    -1.230628     5.410034     2.206618
O    -1.853614     4.660871     2.090288
H    -1.932555     4.244584     2.953742
H     3.481061     2.776859     0.436199
O     3.235070     2.732538    -0.503378
H     3.569298     1.889970    -0.852270
H     1.491475    -4.688329    -2.234896
O     1.554105    -3.910386    -1.662482
H     2.348985    -3.448853    -2.012520
H    -0.925466    -0.078661    -2.543108
O    -0.290926     0.573649    -2.866731
H    -0.032652     1.157472    -2.130177
H     1.695146    -4.674229    -0.163046
O     1.800933    -5.310230     0.580695
H     1.339004    -6.122210     0.284594
H    -1.226490    -3.260169    -2.871620
O    -1.051053    -3.944361    -3.531023
H    -0.924851    -4.790528    -3.060644
H    -2.802025     3.316122     4.699985
O    -1.821167     3.317137     4.667203
H    -1.529129     2.919581     5.505232
H     0.935183     5.054119     4.078022
O    -0.011277     5.283671     4.133654
H    -0.478934     4.477014     4.386688
H    -1.734246    -4.642624    -0.362481
O    -0.969254    -5.182356    -0.075139
H    -1.317466    -5.868921     0.503059
H    -3.927278     5.835608    -2.606145
O    -4.276149     5.000702    -2.936056
H    -4.119062     4.965301    -3.903835
H    -2.440238    -3.679106     1.942398
O    -2.458678    -4.582578     2.319958
H    -1.518931    -4.819890     2.462136
H    -4.695896    -2.977471    -2.897890
O    -3.842497    -3.210110    -3.302103
H    -3.511707    -4.002776    -2.835131
H     0.319673     1.392687     4.620657
O     0.825268     2.152843     4.286911
H     0.872954     2.813059     4.992640
H    -4.656226    -5.166129    -1.567289
O    -5.359507    -4.812665    -0.995326
H    -5.147796    -5.165822    -0.110370
H     2.331671    -6.474582    -4.020083
O     1.992571    -6.145170    -3.167627
H     2.426257    -6.717715    -2.502812
H     0.468992    -3.373474    -3.993736
O     1.272253    -3.006382    -4.415674
H     0.954162    -2.636058    -5.265245
H     1.950644    -1.737426     2.994415
O     2.106884    -2.668624     2.779127
H     1.422787    -2.883657     2.110745
H    -3.015992    -1.805513    -3.206944
O    -2.594774    -0.918615    -3.141973
H    -3.250139    -0.273886    -3.463862
H    -3.206701     4.984472     1.073888
O    -3.988355     5.356221     0.618129
H    -4.403882     5.916592     1.322719
H     0.859704     2.267758     2.596572
O     0.962034     2.261338     1.625597
H     1.690380     1.639219     1.463653
H     0.177489     5.666606    -0.757783
O     0.699564     6.328087    -1.266570
H     0.839797     7.128996    -0.711725
H     0.321925     7.050474     2.590354
O    -0.038011     6.666766     1.773185
H     0.628240     5.997853     1.513687
H    -2.496212     0.227611     3.342427
O    -2.719532    -0.585115     3.849146
H    -1.959092    -0.624560     4.470968
H    -0.914449     0.569648     6.029761
O    -0.640090     0.049104     5.256472
H     0.074583    -0.552681     5.544217
H     0.701118    -4.981118     1.994486
O     0.157409    -5.090212     2.798080
H     0.302439    -6.010401     3.071481
H    -2.121449    -8.079495     0.460553
O    -1.801195    -7.590280     1.245872
H    -2.588777    -7.279190     1.699793
H    -0.390612     6.870889    -2.327790
O    -1.136597     7.288968    -2.829185
H    -1.927446     7.163189    -2.266630
H    -1.127720     4.319920     0.573064
O    -0.753088     4.379363    -0.322456
H    -1.458522     4.136725    -0.955814
H    -4.429005     2.757758     3.501017
O    -4.432199     2.927548     4.465811
H    -4.513681     2.044497     4.874596
H     2.009633    -3.565537     4.259252
O     1.944460    -4.036491     5.113118
H     2.450699    -3.498952     5.743690
H     4.679881    -3.179498     0.858853
O     4.521153    -3.105246    -0.108004
H     3.662000    -2.628776    -0.193702
H    -2.728741    -0.742219    -1.349566
O    -3.058333    -0.471846    -0.476051
H    -3.858604     0.053441    -0.685341
H    -1.616210    -0.757577    -4.626945
O    -1.107702    -0.542464    -5.430075
H    -0.399203     0.055341    -5.144265
H     1.793806    -1.707233    -3.364835
O     1.884140    -0.959741    -2.742264
H     1.106526    -0.383405    -2.875551
H     3.651568    -3.106033     2.568264
O     4.610983    -3.334118     2.497438
H     4.666418    -4.294082     2.625263
H     3.416270    -6.104749     3.143951
O     3.773458    -5.904675     2.244221
H     3.036697    -5.560383     1.699433
H    -3.346476     1.613176    -4.179633
O    -4.191201     1.141746    -3.989881
H    -4.410789     1.288729    -3.033934
H    -5.095696     4.153344     0.059093
O    -5.533363     3.286643    -0.044188
H    -6.463160     3.404957    -0.328289
H     6.728379    -1.168007    -1.341667
O     5.955050    -1.018521    -0.791326
H     5.536430    -1.886410    -0.593775
H     4.592025    -3.158114    -2.451037
O     3.724740    -2.988194    -2.868785
H     3.730157    -3.607767    -3.624272
H     4.416706    -2.273113     5.639634
O     4.072553    -2.737966     6.432739
H     4.408739    -3.642725     6.352824
H    -0.848912     6.298677     4.928536
O    -1.460686     6.897627     5.433103
H    -1.382227     7.758292     4.958593
H     4.692079    -0.124332    -1.450416
O     3.924630     0.416975    -1.715228
H     3.233408    -0.184573    -2.046112
H    -0.748198     4.528289    -4.037622
O    -1.531136     5.070049    -4.247941
H    -1.381623     5.937447    -3.826011
H     0.652381     3.211248    -2.654003
O     0.661158     3.586697    -3.563000
H     0.710179     2.822558    -4.147440
H    -5.392138    -5.185837     1.796857
O    -4.694242    -5.780492     1.443959
H    -3.854586    -5.363411     1.715484
H     7.880934    -1.678791    -4.010001
O     7.621124    -1.364690    -3.111217
H     7.133872    -0.521385    -3.269711
H     3.705962    -5.065797    -5.270259
O     4.467268    -4.691208    -4.788274
H     4.851303    -5.401266    -4.240935
H    -3.802273     0.031703     4.934912
O    -4.404464     0.494904     5.567698
H    -5.065575    -0.163927     5.856469
H     3.460950    -5.930309    -0.499209
O     4.334132    -5.682782    -0.815461
H     4.409245    -4.720173    -0.672985
H     4.999048    -0.326882    -4.143957
O     4.465181    -1.039306    -4.533917
H     4.138208    -1.621954    -3.815926
H    -1.175922     1.576184    -3.934359
O    -1.826347     2.195555    -4.321979
H    -1.467490     2.526673    -5.167957
H     4.885184    -6.311050    -2.291432
O     5.219805    -6.636897    -3.156056
H     6.037968    -7.116738    -2.967318
H     8.740534    -5.078432    -2.888896
O     8.048590    -5.496068    -2.331271
H     8.084198    -6.453484    -2.432139
H     2.323794     4.732392     0.456600
O     1.743598     4.714374     1.227028
H     1.386281     3.794215     1.304659
H    -4.431373    -2.622616     4.232877
O    -5.325208    -2.283262     4.029459
H    -5.187804    -1.503666     3.451874
H    -5.855883    -3.188835     1.316982
O    -6.319291    -3.745302     1.985496
H    -6.133050    -3.308423     2.835683
H     1.664470     3.486972     6.867770
O     1.039285     3.999390     6.333635
H     0.256846     4.150113     6.905243
H     4.986118    -2.150577     3.634940
O     5.004530    -1.431551     4.298321
H     4.192645    -0.876040     4.139076
H     2.376030    -5.558737     4.856631
O     2.757402    -6.442548     4.598651
H     2.013302    -7.024989     4.423623
H     2.263730    -4.513133    -6.773799
O     2.093541    -5.000503    -5.957783
H     1.827016    -4.308620    -5.303812
H     6.434343    -4.088694    -0.479548
O     7.186997    -4.490452    -0.014247
H     7.696125    -4.913620    -0.733496
H    -1.738877     4.388830     7.582767
O    -0.884096     4.553586     8.045419
H    -0.665458     5.499185     7.949130
H    -5.123056     5.692113    -5.606763
O    -4.514772     4.929070    -5.625141
H    -3.756641     5.143579    -6.189898
H     3.289311    -2.525795    -8.421016
O     3.200662    -3.057385    -7.619096
H     4.076480    -3.031721    -7.188694
H    -0.672850     8.833734    -2.285008
O    -0.551528     9.663124    -1.767440
H     0.209251     9.490246    -1.188261
H     2.047556    -0.894201     5.222462
O     1.473889    -1.419203     5.809980
H     1.567502    -1.073354     6.706907
H     5.208044    -2.017394    -5.674219
O     5.555867    -2.784072    -6.194555
H     5.281768    -3.573563    -5.676460
H     5.680914    -5.194151     4.710066
O     5.157004    -5.108573     5.535674
H     4.436418    -5.741547     5.449591
H    -4.001823     1.155856     7.004711
O    -3.812690     1.633638     7.849355
H    -4.687850     2.024598     8.105792
H    -1.868655     9.622933    -0.756195
O    -2.730108     9.495009    -0.284253
H    -3.340943     10.123996    -0.671713
H    -5.957177     4.690942    -2.949548
O    -6.865180     4.570175    -3.294962
H    -6.772828     3.867125    -3.971040
H     0.092573    -7.055999    -1.127221
O     0.555800    -7.490418    -0.378014
H    -0.124449    -7.685102     0.269758
H    -7.647396     3.792426    -1.986139
O    -7.909530     3.206040    -1.245833
H    -7.765054     2.297148    -1.584135
H     3.951523    -0.869854     7.001326
O     3.959083     0.094314     6.991679
H     4.771506     0.384787     6.560587
H     2.245190     5.806910    -1.176289
O     3.180766     5.514910    -1.059966
H     3.359303     4.974164    -1.852246
H     6.544298    -5.913450     0.698524
O     6.175431    -6.649410     1.232591
H     5.270175    -6.372918     1.457231
H    -3.874448     4.610450     7.558920
O    -3.293650     4.094971     6.962797
H    -3.505197     3.173779     7.209551
H     5.758943    -7.930821     0.165762
O     5.472883    -8.619158    -0.471247
H     4.644135    -8.294953    -0.867455
H    -0.578755     2.057744     7.697350
O    -1.212303     1.992674     6.962724
H    -2.078593     1.841107     7.358827
H    -6.395579    -0.114887     1.057715
O    -6.713485    -0.200499     0.144308
H    -7.632166    -0.471623     0.160357
H    -5.378597    -3.059003    -0.587208
O    -5.128494    -2.355873     0.038408
H    -5.698593    -1.583647    -0.151743
H     4.301617     5.592289     0.327667
O     4.633495     5.694049     1.233481
H     3.937920     6.205027     1.683517
H    -9.048837    -1.745212    -2.260613
O    -8.502633    -1.542267    -1.473763
H    -8.630452    -2.278228    -0.835456
H    -5.527927     3.469169    -5.535859
O    -6.045241     2.758345    -5.121305
H    -5.378831     2.174265    -4.705449
H     3.181132    -0.883363    -5.641517
O     2.326153    -1.004913    -6.108665
H     2.413372    -1.854478    -6.580769
H     8.116151    -1.340991    -6.005772
O     8.124339    -2.204342    -5.548077
H     7.268973    -2.605441    -5.799664
H     7.620817     0.998615    -6.290738
O     7.433452     0.149515    -6.703071
H     6.452216     0.098614    -6.741079
H    -7.869654    -3.687782     0.927610
O    -8.547069    -3.582386     0.242057
H    -8.447062    -4.342397    -0.358624
H    -2.429221     8.747317     1.280736
O    -2.277709     8.160218     2.034580
H    -1.507131     7.607324     1.813890
H    -4.472519     6.443342     3.482749
O    -4.635728     6.878928     2.624776
H    -3.867431     7.459260     2.487597
H     3.393855     3.454645    -3.569188
O     3.239557     4.423855    -3.477392
H     2.274823     4.487624    -3.586809
H    -6.118724    -1.605116    -3.444215
O    -6.202543    -2.183303    -2.659497
H    -6.987733    -1.875987    -2.152820
H     6.447662     1.072284     4.756557
O     6.051816     1.611426     5.458198
H     6.239096     2.530032     5.166211
H     1.360004     1.725515    -5.815793
O     1.164611     1.130516    -5.061058
H     1.529423     0.267431    -5.328972
H    -2.525922     2.990200     10.477272
O    -2.311669     2.082411     10.210306
H    -2.906409     1.875391     9.477429
H     7.611802    -0.476650     3.104632
O     6.860834     0.098343     3.271522
H     6.168549    -0.502232     3.650375
H    -5.661858    -8.049519    -0.692975
O    -4.928073    -8.116646    -0.045164
H    -4.933504    -7.298596     0.475565
H    -5.179675    -0.119279    -4.717570
O    -5.795689    -0.832007    -4.957295
H    -6.633845    -0.391337    -5.157638
H     1.892914    -0.197106    -7.504576
O     1.692430     0.273274    -8.349549
H     2.270650    -0.132426    -9.000993
H     4.879475    -1.391906    -9.286512
O     3.954570    -1.164484    -9.570724
H     3.936296    -1.283504    -10.519658
H     7.547745    -2.548399     4.223997
O     7.696364    -2.585707     3.264854
H     7.204248    -3.377388     2.993179
H     6.710239    -5.875378     2.711954
O     6.770015    -5.199240     3.412378
H     7.645339    -5.282820     3.831716
H    -1.754541     9.001731     3.363644
O    -1.397494     9.347901     4.211050
H    -2.189712     9.477800     4.773298
H    -7.392888     1.564557    -5.259350
O    -7.967440     0.820270    -5.014058
H    -8.869688     1.219239    -4.940402
H     6.931415    -1.078725    -8.383525
O     6.350663    -1.800747    -8.647178
H     6.121697    -2.249593    -7.814975
H    -1.680313     6.240531    -7.027561
O    -2.077510     5.415059    -6.753604
H    -1.830910     5.286123    -5.789210
H    -0.024483     3.332626     9.027601
O     0.169375     2.412819     9.283338
H    -0.628851     2.149947     9.789157
H     6.752639    -2.767567    -2.682035
O     6.222327    -3.511863    -2.340848
H     6.692072    -4.322558    -2.585389
H    -4.076975    -3.072802    -4.939495
O    -4.229467    -2.961789    -5.904741
H    -4.777432    -2.169379    -5.963135
H     1.954057     2.206052     8.473758
O     2.617806     2.319222     7.783959
H     3.042147     1.449855     7.669460
H    -6.911850    -5.198513    -1.393292
O    -7.826768    -5.469193    -1.639955
H    -7.959147    -5.068141    -2.523808
H    -3.937268     5.092119     5.255952
O    -4.019483     6.036785     5.069213
H    -3.097226     6.361298     5.194824
H    -7.892561     0.089259    -1.973753
O    -7.402384     0.812502    -2.387372
H    -7.629059     0.800157    -3.341021
H     5.825853     0.146152     0.429274
O     5.602002     0.868307     1.048702
H     6.111117     0.675088     1.862766
H    -6.237727     3.343441     7.381312
O    -6.109082     2.833084     8.215475
H    -6.706910     2.069356     8.131667
H     2.275487    -8.062616    -0.819672
O     2.953766    -8.050397    -1.514661
H     2.730636    -8.765556    -2.127164
H    -2.741199    -3.962194    -6.189183
O    -1.987533    -4.527500    -5.955190
H    -1.713021    -4.234268    -5.058032
H    -5.741634     3.677068     5.296905
O    -6.444697     4.064016     5.860738
H    -6.206629     4.995773     5.915564
H    -1.017791    -7.109162    -3.147383
O    -0.546857    -6.438256    -2.619262
H     0.361214    -6.368602    -2.998745
H     4.423202     2.038842     5.140627
O     3.481375     2.276564     5.018885
H     3.095945     2.294233     5.900127
H     4.082707     4.681552     6.308443
O     4.162050     5.411862     5.690423
H     3.596392     5.169386     4.918726
H     2.743987     3.636696     3.929322
O     2.564283     4.576140     3.762568
H     2.447312     4.673838     2.795792
H     9.384447     0.227990    -1.047378
O     8.577455     0.390941    -0.555441
H     8.401359    -0.427370    -0.061567
H    -2.137144     5.333603     10.565960
O    -2.841581     4.694378     10.805106
H    -2.970042     4.783997     11.752163
H     7.964125    -2.991749     0.353398
O     8.384153    -2.144387     0.608022
H     8.316562    -2.138019     1.570196
H     5.350334     3.685959     3.536662
O     6.004375     3.952500     4.204679
H     5.590359     4.671906     4.703347
H    -4.290217     4.971305     9.707219
O    -4.889889     5.165445     8.960001
H    -5.508252     4.416809     8.919183
H    -7.012756    -3.478021    -3.485363
O    -7.631912    -4.091267    -3.933724
H    -7.109296    -4.533880    -4.634424
H    -0.852494     7.495896     10.801209
O    -1.232799     6.878122     10.172679
H    -0.735506     7.023589     9.327897
H     2.584427     1.502582    -4.095611
O     3.462226     1.856199    -3.856105
H     3.781427     1.342949    -3.083982
H    -6.994151    -0.196739     7.218288
O    -7.498745     0.586201     7.493755
H    -8.126867     0.761100     6.791813
H    -2.744244    -9.865959    -0.812457
O    -2.681553    -8.924492    -0.973523
H    -3.588210    -8.558409    -0.735154
H    -10.073492     3.071528    -4.913435
O    -10.190320     2.154435    -4.631349
H    -10.407705     2.240017    -3.682105
H    -2.084382    -3.008155     4.622329
O    -2.959423    -3.448261     4.691399
H    -2.951577    -4.067335     3.936052
H    -0.187155    -7.968051     2.504493
O     0.638205    -7.756219     2.953627
H     1.357832    -8.052427     2.368599
H     6.685757    -2.349667     6.415249
O     7.136550    -3.059957     5.953833
H     6.507186    -3.795298     5.915359
H    -5.294480    -1.985555     6.944686
O    -5.969829    -1.487519     6.459329
H    -5.952202    -1.865977     5.550576
H     0.835466     3.033774    -7.110260
O     1.753429     2.703519    -7.164346
H     1.741194     1.955078    -7.789086
H    -3.505115     8.698563     6.633670
O    -3.676916     9.159884     5.791163
H    -4.223088     8.532524     5.303605
H    -2.074182     10.319662    -2.749333
O    -2.975205     10.499235    -3.054210
H    -2.902502     11.133214    -3.766961
H     9.395985    -4.036853     4.074210
O     9.115675    -4.714115     4.697476
H     8.684669    -4.240835     5.420113
H    -0.730643    -5.995663    -5.825355
O    -0.027319    -6.561077    -5.489670
H     0.808206    -6.099326    -5.706801
H     1.806467     8.289208     0.662995
O     1.504624     8.608666    -0.215979
H     2.320310     8.647217    -0.744771
H     3.496821     2.933591    -6.653309
O     4.323975     2.644541    -6.242291
H     4.077468     2.372271    -5.333320
H     3.718773     7.137270    -1.226756
O     3.924449     8.072707    -1.441418
H     4.294966     8.015537    -2.334097
H     4.397961    -0.004764    -7.896820
O     4.773530     0.143101    -7.027016
H     4.590662     1.075286    -6.785172
H     6.018886     1.948382    -0.460597
O     6.585357     2.140628    -1.221736
H     7.410007     1.662030    -1.025570
H     6.682962    -8.417636    -1.575098
O     7.319984    -8.207573    -2.310894
H     7.688077    -9.041912    -2.596721
H    -5.298365    -5.789516    -5.400339
O    -5.915602    -5.118497    -5.717061
H    -5.364679    -4.350247    -5.954244
H     0.666306     7.106520     7.370082
O    -0.232481     7.176445     7.749995
H    -0.801947     7.184318     6.929971
H    -8.899223    -2.835601    -4.105635
O    -9.420525    -2.027245    -3.940077
H    -9.134164    -1.363105    -4.570859
H    -2.412423    -5.982156    -2.131153
O    -3.290465    -5.697095    -2.401441
H    -3.475892    -6.073117    -3.287018
H    -2.983628    -5.899139    -5.398089
O    -3.583734    -6.508638    -4.925742
H    -3.101476    -7.328327    -4.757211
H    -1.392166     3.726592    -6.983448
O    -0.851875     2.971484    -6.710698
H    -1.087538     2.185438    -7.259780
H    -0.201263     0.416080    -8.209644
O    -1.097993     0.650960    -7.928137
H    -1.274049     0.128570    -7.129620
H    -10.432688     4.052253    -2.751049
O    -10.500243     3.274303    -2.181938
H    -9.671695     3.249635    -1.671641
H     4.562430     4.098398     1.729797
O     4.355327     3.177480     2.009806
H     5.071945     2.602060     1.729537
H     6.480866     1.408124    -4.203215
O     6.177248     0.784782    -3.508754
H     6.206197     1.281711    -2.665736
H     9.625444    -2.208668    -0.902239
O     9.903403    -1.995408    -1.801878
H     9.103484    -1.658074    -2.247177
H     9.966422    -3.306604    -3.069132
O     9.701046    -3.959934    -3.743480
H     9.308149    -3.453794    -4.465218
H    -7.699984    -8.571626    -1.658753
O    -6.962400    -7.976816    -1.786378
H    -7.340865    -7.064108    -1.778726
H     4.151256     6.089975    -3.815658
O     4.811704     6.791839    -3.730897
H     5.648034     6.338864    -3.591049
H     0.102281    -8.167039    -5.195396
O     0.126649    -9.149712    -5.061852
H     0.278942    -9.514814    -5.933544
H    -2.332137    -8.668190    -2.699103
O    -2.097097    -8.405566    -3.608662
H    -1.449371    -9.024005    -3.965477
H     2.187204    -10.808866    -3.467811
O     2.140238    -9.854334    -3.444941
H     1.355602    -9.584960    -3.973039
H     6.829857     3.340469    -4.560654
O     6.889802     2.661124    -5.260269
H     6.097170     2.792771    -5.802578
H    -3.586434    -3.701819     7.727573
O    -3.699264    -2.914402     7.196610
H    -3.446843    -3.154855     6.278828
H    -0.634737    -3.361587    -6.713068
O    -0.004936    -2.629788    -6.720534
H    -0.487788    -1.854051    -6.381052
H     0.616015     0.485227     8.761530
O     0.624326    -0.229245     8.120758
H    -0.297185    -0.519847     8.032325
H    -5.843802     7.368894    -4.265929
O    -6.345357     6.748572    -4.826640
H    -6.632821     6.018666    -4.234518
H    -4.291824     9.106818    -3.277852
O    -4.826490     8.309955    -3.171633
H    -4.419415     7.832586    -2.430623
H    -9.719610     5.793941    -4.664150
O    -10.252545     4.988984    -4.500439
H    -11.132836     5.188859    -4.820734
H     2.730704     6.542642     6.145707
O     1.770664     6.634552     6.248579
H     1.433194     5.720471     6.136830
H     4.785209     8.563253     0.086716
O     5.101618     8.565760     1.007943
H     5.508580     7.701841     1.140939
H     4.145348    -7.417907    -4.316932
O     3.388351    -7.704234    -4.859943
H     3.108284    -8.544860    -4.482913
H     0.348052     8.677508     4.225558
O     1.031123     8.034460     4.003116
H     1.251297     7.543114     4.819272
H     5.226167     4.202634    -3.147870
O     6.187562     4.173215    -3.093630
H     6.395658     3.593379    -2.344338
H    -2.599080    -1.524875     7.578115
O    -2.092199    -0.729365     7.798441
H    -2.721462    -0.105963     8.171049
H    -9.038619     7.935396    -4.167069
O    -8.973618     7.349281    -4.922520
H    -8.016125     7.186212    -5.055939
H     3.524665    -8.964049     1.117489
O     2.847078    -8.332534     1.364491
H     3.320559    -7.526293     1.643726
H     3.562324     8.190080     1.831516
O     2.772996     7.625071     1.943063
H     2.323533     7.862761     2.767249
N    -3.443176     7.681168     8.234681
H    -2.811134     7.591058     8.961388
H    -4.108171     6.996554     8.389618
