603

H     0.198484     3.053941    -0.664960
O     0.721837     2.388988    -1.162078
H     1.660479     2.515904    -0.886956
H    -0.072292    -1.296380     3.151642
O     0.318614    -0.593987     2.609223
H    -0.160088     0.218121     2.845321
H    -2.400653     2.430548    -0.522965
O    -2.187250     1.957472     0.298807
H    -2.205045     1.010203     0.071231
H    -4.661457     0.556593     2.190528
O    -4.977220    -0.377247     2.201597
H    -4.473039    -0.852450     1.532993
H     0.065268    -0.291836     0.955609
O    -0.131825    -0.052187     0.029323
H     0.205472     0.845539    -0.087432
H    -0.148364    -3.568622     3.772410
O    -0.427587    -2.739768     4.195110
H     0.218457    -2.570876     4.897391
H    -4.887182     2.543153     1.344254
O    -4.247103     2.131658     1.957342
H    -3.404652     2.116654     1.444389
H    -3.252903     3.921926    -2.193122
O    -2.512530     3.326834    -1.964678
H    -2.156731     3.038711    -2.825228
H    -0.120917    -3.786677     0.497005
O     0.218554    -2.969889     0.916664
H    -0.569104    -2.485286     1.230686
H    -2.374539    -1.528122     2.471003
O    -2.185279    -1.991394     1.628583
H    -2.444969    -1.402523     0.900971
H     2.073638    -1.418644    -1.121951
O     2.306286    -1.673807    -0.205445
H     1.517764    -2.103389     0.177697
H    -1.391928     1.837883     1.922397
O    -1.481439     1.437418     2.797349
H    -1.467886     2.147816     3.464480
H     0.210261    -2.678697    -1.573625
O    -0.545523    -2.067077    -1.626332
H    -0.366544    -1.342914    -0.989905
H    -3.434154    -2.907860    -0.393426
O    -2.716231    -3.397714    -0.815753
H    -2.007121    -2.765490    -1.032645
H     2.773797     0.142125     2.936925
O     2.873934    -0.043347     3.897871
H     2.964392     0.848261     4.305479
H    -3.561618     6.378722    -0.481616
O    -3.374047     7.039922    -1.203529
H    -3.182632     7.899747    -0.759531
H     3.902136     0.602803     1.189809
O     2.951584     0.420834     1.305258
H     2.714571    -0.330502     0.724333
H    -5.782444     0.862470    -1.594747
O    -4.872281     1.190531    -1.467861
H    -4.984373     2.017509    -0.953863
H    -1.215834     5.410655     2.231419
O    -1.837410     4.661530     2.111323
H    -1.916572     4.240997     2.972816
H     3.491435     2.783860     0.435773
O     3.243451     2.745392    -0.503709
H     3.575564     1.903719    -0.857151
H     1.494275    -4.669292    -2.261209
O     1.558397    -3.893546    -1.685973
H     2.352484    -3.430792    -2.036049
H    -0.923238    -0.058750    -2.544243
O    -0.290424     0.596072    -2.866414
H    -0.030047     1.175440    -2.127285
H     1.703308    -4.664019    -0.189933
O     1.811468    -5.303215     0.550635
H     1.348528    -6.113919     0.252572
H    -1.225488    -3.238652    -2.884696
O    -1.051084    -3.919758    -3.547530
H    -0.924034    -4.768044    -3.081142
H    -2.780649     3.312884     4.719642
O    -1.799311     3.311263     4.685236
H    -1.506025     2.907092     5.520162
H     0.959650     5.043059     4.094680
O     0.013527     5.274945     4.146266
H    -0.458349     4.471223     4.402912
H    -1.726246    -4.631394    -0.379942
O    -0.960431    -5.172380    -0.097158
H    -1.307062    -5.861222     0.479313
H    -3.929061     5.855837    -2.573097
O    -4.272914     5.019911    -2.905800
H    -4.125814     4.990397    -3.875231
H    -2.426088    -3.677423     1.930944
O    -2.443417    -4.582815     2.303900
H    -1.503394    -4.820463     2.443357
H    -4.694409    -2.955373    -2.900667
O    -3.841947    -3.186193    -3.308021
H    -3.510223    -3.981013    -2.845344
H     0.340668     1.383416     4.622650
O     0.845991     2.144966     4.291016
H     0.893877     2.801898     4.999854
H    -4.651238    -5.150067    -1.579110
O    -5.352978    -4.798967    -1.003865
H    -5.138994    -5.155754    -0.120869
H     2.329779    -6.447902    -4.056389
O     1.993123    -6.121904    -3.201659
H     2.428338    -6.697470    -2.540422
H     0.467500    -3.346899    -4.011638
O     1.269434    -2.977626    -4.434314
H     0.948836    -2.604215    -5.281571
H     1.967047    -1.740666     2.979864
O     2.123155    -2.670653     2.759376
H     1.436939    -2.882934     2.092295
H    -3.015218    -1.782359    -3.209094
O    -2.593612    -0.895689    -3.142115
H    -3.250233    -0.249721    -3.458924
H    -3.193601     4.990510     1.099501
O    -3.972372     5.367737     0.643738
H    -4.390874     5.920859     1.351675
H     0.874991     2.266674     2.601248
O     0.976459     2.265853     1.629981
H     1.703311     1.642971     1.463900
H     0.196815     5.673614    -0.711935
O     0.690171     6.355033    -1.231069
H     0.873838     7.115171    -0.633220
H     0.335334     7.049522     2.614302
O    -0.023008     6.672783     1.793672
H     0.639392     6.000033     1.534331
H    -2.478486     0.223123     3.347408
O    -2.698813    -0.592813     3.849838
H    -1.937958    -0.633191     4.471095
H    -0.891052     0.555256     6.031583
O    -0.616782     0.038568     5.255343
H     0.097051    -0.565473     5.539953
H     0.715393    -4.980031     1.969016
O     0.173856    -5.092383     2.773566
H     0.319502    -6.013668     3.042889
H    -2.111377    -8.071825     0.429494
O    -1.788751    -7.585918     1.215870
H    -2.574949    -7.276814     1.673551
H    -0.427911     6.962385    -2.279993
O    -1.189438     7.380738    -2.761035
H    -1.949905     7.174729    -2.158564
H    -1.112817     4.330830     0.588785
O    -0.742215     4.396795    -0.308227
H    -1.450427     4.150695    -0.937534
H    -4.409903     2.753345     3.522049
O    -4.407107     2.920631     4.487140
H    -4.489983     2.036384     4.893665
H     2.029527    -3.573912     4.236383
O     1.966833    -4.048906     5.088128
H     2.473615    -3.513651     5.720202
H     4.690898    -3.173959     0.830455
O     4.529838    -3.095191    -0.135734
H     3.670314    -2.618685    -0.217029
H    -2.723228    -0.726654    -1.348089
O    -3.049888    -0.458998    -0.472692
H    -3.851428     0.066184    -0.677356
H    -1.619686    -0.728497    -4.628576
O    -1.113408    -0.508901    -5.432012
H    -0.403680     0.086681    -5.144896
H     1.793774    -1.683403    -3.379312
O     1.885936    -0.937966    -2.754450
H     1.107595    -0.361724    -2.882912
H     3.667050    -3.107399     2.542828
O     4.626234    -3.335318     2.468188
H     4.681838    -4.295800     2.592176
H     3.433236    -6.108497     3.106752
O     3.788122    -5.904559     2.206895
H     3.049890    -5.558033     1.665586
H    -3.348079     1.641650    -4.165675
O    -4.191481     1.168499    -3.976125
H    -4.409812     1.311176    -3.018982
H    -5.086044     4.164549     0.084687
O    -5.523141     3.297795    -0.019211
H    -6.454301     3.416462    -0.299530
H     6.733680    -1.153265    -1.366744
O     5.961212    -1.005616    -0.814689
H     5.543363    -1.874380    -0.618951
H     4.594259    -3.138270    -2.479272
O     3.726031    -2.966242    -2.894232
H     3.729263    -3.583031    -3.652032
H     4.440040    -2.287882     5.616025
O     4.098119    -2.756066     6.408007
H     4.433790    -3.660561     6.323376
H    -0.756469     6.343074     5.097415
O    -1.352758     6.917132     5.637627
H    -1.369618     7.794693     5.197108
H     4.696841    -0.108233    -1.466264
O     3.928869     0.434433    -1.727059
H     3.236687    -0.166000    -2.058103
H    -0.648139     4.563460    -4.041604
O    -1.432557     5.099272    -4.276634
H    -1.325123     5.937544    -3.790343
H     0.653856     3.231866    -2.644191
O     0.659899     3.614109    -3.550889
H     0.706036     2.853361    -4.140190
H    -5.378284    -5.183853     1.786803
O    -4.681365    -5.776987     1.429283
H    -3.841029    -5.361118     1.700535
H     7.879155    -1.652842    -4.040814
O     7.621748    -1.342383    -3.140053
H     7.134053    -0.498590    -3.293679
H     3.700775    -5.034007    -5.304088
O     4.463336    -4.661393    -4.822554
H     4.848807    -5.373792    -4.279236
H    -3.781641     0.020314     4.941496
O    -4.382001     0.482114     5.576011
H    -5.041566    -0.177229     5.866486
H     3.468145    -5.918671    -0.535520
O     4.340292    -5.669928    -0.853739
H     4.416098    -4.708022    -0.707215
H     4.997104    -0.300405    -4.161053
O     4.461596    -1.010536    -4.552813
H     4.136830    -1.596766    -3.836620
H    -1.177757     1.603629    -3.927001
O    -1.826894     2.227975    -4.309248
H    -1.470759     2.559045    -5.156422
H     4.887457    -6.292122    -2.333784
O     5.220036    -6.613993    -3.200672
H     6.038339    -7.095206    -3.015957
H     8.741278    -5.057532    -2.936402
O     8.050609    -5.477377    -2.378895
H     8.086001    -6.434384    -2.483718
H     2.334123     4.737743     0.466962
O     1.755016     4.719745     1.238019
H     1.398562     3.798828     1.315665
H    -4.410944    -2.630706     4.231131
O    -5.305348    -2.291374     4.030389
H    -5.169587    -1.508396     3.457113
H    -5.843042    -3.184846     1.316722
O    -6.304691    -3.744312     1.983803
H    -6.116220    -3.311011     2.835459
H     1.687127     3.469826     6.875321
O     1.063632     3.986655     6.343357
H     0.280836     4.137410     6.915995
H     5.004277    -2.156924     3.610171
O     5.024703    -1.440467     4.276266
H     4.212245    -0.884509     4.121936
H     2.397728    -5.569768     4.824305
O     2.778380    -6.452471     4.561361
H     2.033733    -7.034152     4.386122
H     2.254498    -4.474634    -6.801591
O     2.086578    -4.965451    -5.987185
H     1.821813    -4.276488    -5.329501
H     6.441631    -4.077688    -0.516630
O     7.195654    -4.481312    -0.055211
H     7.702626    -4.901696    -0.777607
H    -1.724423     4.485864     7.719415
O    -0.825082     4.583996     8.103922
H    -0.645591     5.543339     8.131240
H    -5.128835     5.724996    -5.567616
O    -4.516778     4.963774    -5.592573
H    -3.763845     5.181494    -6.162595
H     3.275851    -2.480365    -8.443086
O     3.189044    -3.014958    -7.642967
H     4.066102    -2.991752    -7.214971
H    -0.487982     8.976739    -1.952139
O    -0.315772     9.805802    -1.467635
H     0.423989     9.561214    -0.877219
H     2.069804    -0.906661     5.211758
O     1.497871    -1.434815     5.797902
H     1.591824    -1.092011     6.696081
H     5.201674    -1.984127    -5.699196
O     5.548169    -2.748523    -6.223667
H     5.275414    -3.540268    -5.708224
H     5.701834    -5.205059     4.670273
O     5.180276    -5.122750     5.497643
H     4.459298    -5.755221     5.411093
H    -3.971102     1.142783     7.017397
O    -3.778594     1.616376     7.862352
H    -4.654826     2.000695     8.124943
H    -1.805054     9.700291    -0.618264
O    -2.713630     9.499769    -0.287956
H    -3.297217     10.101785    -0.775948
H    -5.962129     4.713373    -2.916467
O    -6.868687     4.584220    -3.262028
H    -6.773850     3.883833    -3.939919
H     0.098320    -7.041612    -1.159804
O     0.563619    -7.479219    -0.413768
H    -0.114840    -7.676638     0.235079
H    -7.644473     3.810020    -1.949910
O    -7.903830     3.219564    -1.211590
H    -7.760402     2.312703    -1.555130
H     3.977611    -0.890520     6.985308
O     3.985520     0.073669     6.978654
H     4.797503     0.365198     6.547591
H     2.243300     5.823762    -1.170076
O     3.176688     5.532195    -1.051480
H     3.359456     4.991992    -1.843893
H     6.554588    -5.907441     0.653502
O     6.186948    -6.645567     1.185337
H     5.282453    -6.369729     1.413887
H    -3.867700     4.724175     7.801082
O    -3.300829     4.263491     7.140748
H    -3.493964     3.319705     7.248438
H     5.767471    -7.922454     0.114366
O     5.479671    -8.608039    -0.524823
H     4.649864    -8.282121    -0.917411
H    -0.555058     2.039375     7.703645
O    -1.188634     1.976465     6.968724
H    -2.056793     1.833144     7.365454
H    -6.383582    -0.109470     1.071645
O    -6.703525    -0.191960     0.158604
H    -7.622379    -0.462431     0.176032
H    -5.371166    -3.046894    -0.588295
O    -5.118597    -2.346278     0.039105
H    -5.689871    -1.573453    -0.145284
H     4.311784     5.599197     0.336139
O     4.652050     5.694742     1.238885
H     3.960351     6.199649     1.701851
H    -9.045701    -1.726789    -2.246232
O    -8.497020    -1.527280    -1.460264
H    -8.623392    -2.265635    -0.824416
H    -5.531844     3.502487    -5.510212
O    -6.047557     2.788032    -5.100035
H    -5.380701     2.203027    -4.686463
H     3.174870    -0.849895    -5.656175
O     2.318661    -0.968800    -6.121769
H     2.404341    -1.816508    -6.597576
H     8.109107    -1.306644    -6.035836
O     8.118326    -2.171782    -5.581628
H     7.262323    -2.571871    -5.832660
H     7.613093     1.034451    -6.309689
O     7.424430     0.187076    -6.724898
H     6.443124     0.136378    -6.760548
H    -7.857999    -3.682352     0.930734
O    -8.537094    -3.574274     0.247236
H    -8.438733    -4.331939    -0.356606
H    -2.426948     8.755789     1.297561
O    -2.267318     8.171494     2.052049
H    -1.496557     7.619316     1.830267
H    -4.444103     6.444790     3.522560
O    -4.617476     6.869629     2.666297
H    -3.859356     7.461447     2.524264
H     3.394079     3.479410    -3.565747
O     3.238350     4.448269    -3.468718
H     2.273369     4.510176    -3.577539
H    -6.118925    -1.581030    -3.437172
O    -6.200311    -2.162725    -2.654893
H    -6.984192    -1.857846    -2.144556
H     6.469161     1.060419     4.741678
O     6.075185     1.596973     5.446335
H     6.262465     2.516586     5.157972
H     1.354000     1.760096    -5.814723
O     1.160891     1.162564    -5.061410
H     1.524220     0.300216    -5.333957
H    -2.485178     2.952312     10.498432
O    -2.272311     2.045704     10.222333
H    -2.870489     1.847621     9.489906
H     7.628486    -0.481730     3.080086
O     6.878170     0.093028     3.250808
H     6.186719    -0.508812     3.629462
H    -5.654558    -8.037165    -0.714298
O    -4.918928    -8.106898    -0.068842
H    -4.923108    -7.291115     0.455482
H    -5.183038    -0.089759    -4.707141
O    -5.799447    -0.801462    -4.948400
H    -6.638404    -0.360174    -5.144180
H     1.882144    -0.155381    -7.512967
O     1.679456     0.319150    -8.355141
H     2.255364    -0.084020    -9.010210
H     4.863515    -1.343233    -9.308112
O     3.937943    -1.114017    -9.588688
H     3.916797    -1.229534    -10.538004
H     7.567735    -2.557572     4.190542
O     7.713520    -2.590514     3.230772
H     7.220944    -3.381264     2.957171
H     6.725977    -5.877827     2.666620
O     6.787715    -5.204426     3.369472
H     7.663952    -5.290062     3.786486
H    -1.830453     8.961501     3.518260
O    -1.580009     9.257067     4.418511
H    -2.427045     9.391773     4.876589
H    -7.397836     1.595655    -5.236395
O    -7.971619     0.850603    -4.992067
H    -8.873710     1.249477    -4.914023
H     6.918077    -1.034149    -8.409224
O     6.336246    -1.754787    -8.674246
H     6.109730    -2.207336    -7.843383
H    -1.740100     6.144902    -7.211539
O    -2.124166     5.386129    -6.771931
H    -1.752985     5.358695    -5.841224
H     0.003175     3.306454     9.036716
O     0.201354     2.386194     9.289170
H    -0.596404     2.119921     9.795483
H     6.754394    -2.747226    -2.714373
O     6.224718    -3.492776    -2.375055
H     6.693586    -4.302597    -2.624177
H    -4.080886    -3.042267    -4.944202
O    -4.235583    -2.927013    -5.908617
H    -4.784184    -2.134697    -5.962189
H     1.982773     2.182298     8.474073
O     2.645977     2.296763     7.783683
H     3.068649     1.427065     7.666002
H    -6.906314    -5.183367    -1.399278
O    -7.821749    -5.453318    -1.644807
H    -7.956600    -5.048428    -2.526501
H    -3.828632     5.258047     5.719246
O    -3.796422     6.027916     5.130375
H    -2.862966     6.323265     5.225218
H    -7.888538     0.106686    -1.954980
O    -7.398744     0.831008    -2.367138
H    -7.628854     0.823241    -3.319951
H     5.835861     0.153166     0.411776
O     5.614116     0.872838     1.034900
H     6.125147     0.675448     1.846882
H    -6.213086     3.307129     7.415262
O    -6.084164     2.786582     8.242333
H    -6.684074     2.025170     8.152445
H     2.281731    -8.049520    -0.862886
O     2.958176    -8.034447    -1.559626
H     2.733423    -8.747074    -2.174486
H    -2.748529    -3.926284    -6.201253
O    -1.993856    -4.492168    -5.971913
H    -1.717336    -4.203160    -5.074002
H    -5.643784     3.763910     5.328701
O    -6.292085     4.157842     5.948307
H    -6.131106     5.102340     5.935586
H    -1.017268    -7.086304    -3.177168
O    -0.544882    -6.417429    -2.647735
H     0.362163    -6.346300    -3.029321
H     4.445009     2.025539     5.136159
O     3.503277     2.265069     5.017218
H     3.119367     2.278178     5.899358
H     4.108614     4.662971     6.316285
O     4.188955     5.394523     5.699797
H     3.620477     5.155879     4.929000
H     2.762952     3.628582     3.936079
O     2.585054     4.569012     3.772282
H     2.464736     4.670124     2.806471
H     9.390706     0.240990    -1.074135
O     8.584663     0.401961    -0.579976
H     8.410091    -0.418140    -0.088484
H    -2.098715     5.311345     10.671730
O    -2.819751     4.681341     10.902076
H    -3.037964     4.856390     11.817703
H     7.973768    -2.984414     0.316785
O     8.394298    -2.138009     0.573849
H     8.329572    -2.135980     1.536255
H     5.368537     3.679001     3.536552
O     6.025642     3.943800     4.202057
H     5.612448     4.659223     4.707170
H    -4.206931     5.014269     9.806694
O    -4.840487     5.166700     9.085419
H    -5.452040     4.417838     9.081500
H    -7.012767    -3.454123    -3.483907
O    -7.633005    -4.065502    -3.933301
H    -7.112302    -4.505045    -4.637297
H     0.029199     6.121544     10.792108
O    -0.835977     6.452606     10.546492
H    -0.721579     6.885657     9.681261
H     2.582721     1.530188    -4.098942
O     3.460616     1.883772    -3.859221
H     3.782346     1.365649    -3.091216
H    -6.968160    -0.222026     7.230058
O    -7.476945     0.555395     7.512968
H    -8.100982     0.740262     6.810003
H    -2.737478    -9.852918    -0.849496
O    -2.675206    -8.910807    -1.006931
H    -3.581180    -8.545692    -0.764312
H    -10.077446     3.101365    -4.876462
O    -10.193304     2.183030    -4.597917
H    -10.408115     2.264971    -3.647680
H    -2.063337    -3.017482     4.612534
O    -2.937754    -3.458564     4.681945
H    -2.931972    -4.074354     3.924033
H    -0.171468    -7.969089     2.468915
O     0.655196    -7.759024     2.916465
H     1.373134    -8.052879     2.328211
H     6.711241    -2.367963     6.385075
O     7.160729    -3.076115     5.919101
H     6.531282    -3.811341     5.879478
H    -5.266547    -2.004609     6.948020
O    -5.943653    -1.505783     6.466002
H    -5.928092    -1.880421     5.555848
H     0.825764     3.074053    -7.102719
O     1.743359     2.743723    -7.159773
H     1.729889     1.997983    -7.787838
H    -3.958537     8.757408     6.704335
O    -3.953592     8.758091     5.747019
H    -4.081285     7.831960     5.475959
H    -3.266022     10.394332    -3.136520
O    -4.036119     10.612133    -2.553647
H    -4.278705     11.516271    -2.769659
H     9.415266    -4.045358     4.029843
O     9.136523    -4.725324     4.650853
H     8.707377    -4.255225     5.376675
H    -0.737251    -5.961167    -5.851509
O    -0.033126    -6.528091    -5.520084
H     0.801879    -6.065531    -5.737331
H     1.889660     8.245248     0.733249
O     1.582679     8.575938    -0.140783
H     2.389898     8.624349    -0.682005
H     3.487886     2.971110    -6.653063
O     4.316163     2.681340    -6.244843
H     4.071928     2.404178    -5.336768
H     3.740900     7.142593    -1.214141
O     3.951886     8.078727    -1.421260
H     4.308559     8.028974    -2.320129
H     4.385862     0.037868    -7.911122
O     4.763566     0.182616    -7.041704
H     4.581453     1.113785    -6.795946
H     6.027119     1.958948    -0.470926
O     6.591219     2.155163    -1.232870
H     7.416372     1.675429    -1.041403
H     6.686720    -8.402124    -1.630981
O     7.321646    -8.189059    -2.367756
H     7.688063    -9.022367    -2.658713
H    -5.303415    -5.757189    -5.413480
O    -5.921386    -5.084830    -5.725884
H    -5.371115    -4.315585    -5.961193
H     0.681131     7.175667     7.624186
O    -0.220129     7.201393     7.984370
H    -0.776317     7.218223     7.167399
H    -8.900941    -2.809250    -4.096523
O    -9.421855    -2.001674    -3.926139
H    -9.137292    -1.334770    -4.554806
H    -2.409173    -5.963685    -2.152420
O    -3.287629    -5.677004    -2.419610
H    -3.475519    -6.049667    -3.306054
H    -2.988650    -5.866811    -5.417860
O    -3.587548    -6.478186    -4.946523
H    -3.104967    -7.298618    -4.782559
H    -1.401956     3.766326    -6.967317
O    -0.861328     3.011022    -6.697581
H    -1.096763     2.226404    -7.249533
H    -0.213757     0.461382    -8.209883
O    -1.109098     0.696424    -7.924018
H    -1.283871     0.169123    -7.128415
H    -10.430694     4.073451    -2.708358
O    -10.496581     3.292233    -2.143523
H    -9.667289     3.266027    -1.634447
H     4.579244     4.098276     1.731637
O     4.369232     3.177029     2.007694
H     5.084985     2.601135     1.726033
H     6.478781     1.435155    -4.217160
O     6.176459     0.809189    -3.524587
H     6.208357     1.302090    -2.679340
H     9.631885    -2.196326    -0.939873
O     9.907483    -1.978927    -1.839254
H     9.106376    -1.639830    -2.281000
H     9.967044    -3.284870    -3.112314
O     9.699672    -3.935253    -3.788697
H     9.305028    -3.426020    -4.507283
H    -7.695028    -8.555422    -1.676574
O    -6.957810    -7.960131    -1.804113
H    -7.336247    -7.047437    -1.791496
H     4.150011     6.112768    -3.806944
O     4.809036     6.815800    -3.720913
H     5.646691     6.364162    -3.584586
H     0.097039    -8.135395    -5.233037
O     0.121814    -9.118618    -5.103914
H     0.271569    -9.479895    -5.977635
H    -2.330508    -8.647157    -2.732089
O    -2.097646    -8.380574    -3.641091
H    -1.451157    -8.997745    -4.002294
H     2.186656    -10.784492    -3.522549
O     2.139839    -9.830052    -3.495623
H     1.353680    -9.558478    -4.020311
H     6.826982     3.369632    -4.567738
O     6.884590     2.693023    -5.270006
H     6.090611     2.826810    -5.809802
H    -3.556489    -3.724387     7.719351
O    -3.671621    -2.935232     7.191500
H    -3.421161    -3.171671     6.272307
H    -0.643369    -3.323389    -6.728109
O    -0.013873    -2.591253    -6.734273
H    -0.496086    -1.817228    -6.390157
H     0.646952     0.459550     8.758153
O     0.654470    -0.253511     8.115648
H    -0.267671    -0.542795     8.028105
H    -5.927735     7.373669    -4.161853
O    -6.352804     6.759215    -4.792201
H    -6.656273     6.012625    -4.228790
H    -5.194485     9.072282    -2.747761
O    -5.579245     8.187840    -2.670704
H    -4.975955     7.712590    -2.076195
H    -9.722447     5.824406    -4.615484
O    -10.254456     5.017584    -4.456475
H    -11.135992     5.219705    -4.771868
H     2.766687     6.522983     6.159672
O     1.806557     6.618751     6.257587
H     1.463546     5.705251     6.154305
H     4.802346     8.570086     0.111439
O     5.114455     8.567459     1.033905
H     5.525702     7.704655     1.161112
H     4.142514    -7.390093    -4.361995
O     3.384153    -7.673877    -4.904442
H     3.104880    -8.516138    -4.530467
H     0.370778     8.670875     4.259385
O     1.049783     8.027546     4.031114
H     1.275638     7.532440     4.844724
H     5.226864     4.223562    -3.146876
O     6.188306     4.196753    -3.093967
H     6.399144     3.612297    -2.348952
H    -2.571735    -1.545063     7.576433
O    -2.061864    -0.751914     7.797840
H    -2.687779    -0.127188     8.174418
H    -9.038375     7.960138    -4.110387
O    -8.977700     7.380618    -4.871388
H    -8.020631     7.213679    -5.006941
H     3.536590    -8.959160     1.067426
O     2.859628    -8.328654     1.318677
H     3.333779    -7.523761     1.600605
H     3.596582     8.181025     1.886730
O     2.814580     7.606415     2.003964
H     2.349008     7.852711     2.816784
N    -1.827441     9.949193    -4.025489
H    -1.624293     9.024001    -3.800355
H    -1.128033     10.432787    -3.568792
