603

H     0.198792     3.030559    -0.672867
O     0.722249     2.362421    -1.165628
H     1.660722     2.491041    -0.890985
H    -0.080790    -1.306701     3.157077
O     0.312095    -0.605523     2.614331
H    -0.168209     0.207063     2.845471
H    -2.400588     2.410108    -0.532661
O    -2.189462     1.940010     0.291425
H    -2.207137     0.991935     0.067182
H    -4.667415     0.547742     2.184289
O    -4.984470    -0.385491     2.196845
H    -4.478990    -0.863433     1.531305
H     0.060374    -0.308853     0.958672
O    -0.135725    -0.072347     0.031472
H     0.203166     0.824453    -0.088715
H    -0.160791    -3.576680     3.784758
O    -0.436214    -2.744502     4.203500
H     0.208417    -2.577796     4.907209
H    -4.890406     2.530911     1.330566
O    -4.250697     2.122063     1.945280
H    -3.407783     2.104382     1.433325
H    -3.249407     3.897230    -2.209565
O    -2.511717     3.300696    -1.977841
H    -2.152764     3.012204    -2.837076
H    -0.128910    -3.805221     0.511290
O     0.211032    -2.987419     0.928711
H    -0.576519    -2.501124     1.240412
H    -2.384955    -1.538115     2.475506
O    -2.192285    -2.003248     1.634919
H    -2.450913    -1.416960     0.904878
H     2.070577    -1.444458    -1.112167
O     2.301708    -1.696922    -0.194485
H     1.512144    -2.124468     0.188852
H    -1.395723     1.825237     1.916568
O    -1.485955     1.427483     2.792740
H    -1.474555     2.139372     3.458314
H     0.206509    -2.704280    -1.562291
O    -0.548540    -2.092094    -1.618274
H    -0.369950    -1.366015    -0.983861
H    -3.439580    -2.926117    -0.386345
O    -2.721927    -3.417760    -0.807062
H    -2.011676    -2.786943    -1.024248
H     2.766543     0.128453     2.942511
O     2.865077    -0.053234     3.904542
H     2.956721     0.840003     4.308278
H    -3.531257     6.380176    -0.542184
O    -3.292150     7.042708    -1.242298
H    -3.150805     7.887790    -0.771899
H     3.897630     0.583141     1.195384
O     2.947048     0.401449     1.311099
H     2.709977    -0.350916     0.731472
H    -5.782998     0.841924    -1.603052
O    -4.872651     1.169567    -1.477083
H    -4.984010     1.998145    -0.965788
H    -1.216380     5.397290     2.214429
O    -1.841086     4.649957     2.097442
H    -1.920580     4.231900     2.959842
H     3.490019     2.761974     0.433844
O     3.243227     2.719308    -0.505565
H     3.575721     1.876513    -0.855698
H     1.489508    -4.698337    -2.241635
O     1.553702    -3.920778    -1.668892
H     2.348644    -3.459883    -2.019401
H    -0.922679    -0.086380    -2.542641
O    -0.288391     0.566132    -2.866480
H    -0.028623     1.148596    -2.129445
H     1.695618    -4.686434    -0.170230
O     1.802723    -5.323532     0.572307
H     1.338835    -6.134539     0.276532
H    -1.227835    -3.267054    -2.873679
O    -1.053370    -3.950556    -3.534068
H    -0.927846    -4.797385    -3.064612
H    -2.789352     3.312175     4.705055
O    -1.806726     3.297902     4.683996
H    -1.537452     2.892110     5.524220
H     0.953515     5.034457     4.081947
O     0.006987     5.264817     4.133771
H    -0.463812     4.461594     4.394361
H    -1.733417    -4.650980    -0.365577
O    -0.968360    -5.192198    -0.081130
H    -1.316363    -5.877428     0.498882
H    -3.918103     5.831575    -2.597380
O    -4.268845     4.997497    -2.927174
H    -4.113090     4.962164    -3.895179
H    -2.435343    -3.689336     1.939170
O    -2.453771    -4.595476     2.309758
H    -1.514874    -4.831715     2.457518
H    -4.696574    -2.980569    -2.895285
O    -3.844091    -3.213677    -3.301216
H    -3.513357    -4.006908    -2.835068
H     0.332509     1.377010     4.618583
O     0.839121     2.137329     4.287892
H     0.885742     2.797265     4.994260
H    -4.657769    -5.170410    -1.566630
O    -5.360309    -4.816807    -0.993945
H    -5.147758    -5.170446    -0.109111
H     2.326016    -6.483844    -4.029634
O     1.988441    -6.154700    -3.176512
H     2.422034    -6.728400    -2.512621
H     0.466490    -3.380852    -3.997848
O     1.269514    -3.014159    -4.420738
H     0.950474    -2.642855    -5.269498
H     1.957577    -1.752836     2.989575
O     2.113777    -2.683634     2.772760
H     1.427947    -2.898042     2.105851
H    -3.015956    -1.810314    -3.205441
O    -2.593680    -0.923801    -3.140952
H    -3.249166    -0.278308    -3.460813
H    -3.194575     4.975798     1.081684
O    -3.975344     5.349960     0.626365
H    -4.391370     5.907456     1.332278
H     0.870532     2.253855     2.596647
O     0.972782     2.249192     1.625745
H     1.699505     1.625481     1.462354
H     0.187792     5.656290    -0.753762
O     0.710016     6.318064    -1.262207
H     0.851505     7.117981    -0.706523
H     0.338305     7.036323     2.595598
O    -0.023457     6.655433     1.778282
H     0.640723     5.984906     1.517096
H    -2.487322     0.217079     3.345509
O    -2.711455    -0.595885     3.850839
H    -1.951231    -0.640594     4.470479
H    -0.890993     0.569892     6.026562
O    -0.628352     0.029927     5.261323
H     0.092093    -0.567410     5.544478
H     0.705010    -4.994856     1.988327
O     0.162564    -5.102950     2.792771
H     0.305529    -6.023465     3.065992
H    -2.123860    -8.088000     0.455297
O    -1.800667    -7.600463     1.240289
H    -2.586288    -7.288472     1.697055
H    -0.380539     6.862943    -2.321648
O    -1.126548     7.282966    -2.821451
H    -1.916971     7.156621    -2.258391
H    -1.117283     4.309412     0.577763
O    -0.743667     4.370763    -0.317958
H    -1.449631     4.128192    -0.950905
H    -4.417415     2.761238     3.501985
O    -4.415803     2.939695     4.464546
H    -4.487752     2.054887     4.878565
H     2.017222    -3.581944     4.252599
O     1.953156    -4.053321     5.106276
H     2.460251    -3.516887     5.736905
H     4.683348    -3.195779     0.849607
O     4.523755    -3.120078    -0.117021
H     3.664752    -2.643007    -0.201149
H    -2.725225    -0.748753    -1.347575
O    -3.052836    -0.478056    -0.473491
H    -3.853705     0.046983    -0.680806
H    -1.617043    -0.762418    -4.626394
O    -1.109293    -0.546737    -5.429945
H    -0.399760     0.049783    -5.144129
H     1.793599    -1.716571    -3.369100
O     1.885786    -0.969342    -2.746471
H     1.108207    -0.392552    -2.877861
H     3.657315    -3.122539     2.560042
O     4.616439    -3.351709     2.488057
H     4.670578    -4.311924     2.614928
H     3.419402    -6.121771     3.133684
O     3.776093    -5.920944     2.233797
H     3.038968    -5.575681     1.690129
H    -3.344294     1.609901    -4.174567
O    -4.189563     1.139683    -3.984633
H    -4.407749     1.285183    -3.027991
H    -5.086103     4.148265     0.066970
O    -5.524178     3.282195    -0.037406
H    -6.454789     3.401052    -0.318377
H     6.731237    -1.184410    -1.351418
O     5.958686    -1.034332    -0.800156
H     5.539278    -1.901941    -0.602676
H     4.591505    -3.171031    -2.460207
O     3.724080    -2.999632    -2.877015
H     3.727768    -3.618838    -3.632804
H     4.427396    -2.293379     5.631400
O     4.083915    -2.757937     6.424950
H     4.418164    -3.663329     6.343849
H    -0.761775     6.338558     5.079093
O    -1.357984     6.915628     5.616095
H    -1.370683     7.792323     5.174069
H     4.695799    -0.138312    -1.456914
O     3.928721     0.404169    -1.720426
H     3.236336    -0.196400    -2.050775
H    -0.742891     4.521902    -4.033097
O    -1.525163     5.065190    -4.242158
H    -1.373925     5.931893    -3.819671
H     0.658044     3.202471    -2.652555
O     0.666133     3.578939    -3.561218
H     0.713601     2.815217    -4.146360
H    -5.389701    -5.192248     1.798965
O    -4.693994    -5.786977     1.441879
H    -3.852862    -5.372455     1.713019
H     7.880098    -1.693682    -4.021892
O     7.621876    -1.380080    -3.122490
H     7.135093    -0.536264    -3.279539
H     3.700094    -5.075281    -5.280023
O     4.462532    -4.701917    -4.798848
H     4.846353    -5.412812    -4.252432
H    -3.718963     0.063713     4.875371
O    -4.285954     0.545590     5.532795
H    -5.062314    -0.026184     5.681154
H     3.459998    -5.943804    -0.509012
O     4.332891    -5.697001    -0.826787
H     4.409268    -4.734655    -0.683467
H     4.999317    -0.338858    -4.150953
O     4.464299    -1.050281    -4.541088
H     4.137526    -1.633401    -3.823299
H    -1.173649     1.570255    -3.931809
O    -1.823521     2.191045    -4.318211
H    -1.465282     2.522117    -5.164417
H     4.881338    -6.324603    -2.303907
O     5.214924    -6.649763    -3.169215
H     6.032601    -7.130905    -2.981709
H     8.737512    -5.095523    -2.905058
O     8.045788    -5.512865    -2.347001
H     8.080163    -6.470240    -2.448751
H     2.334502     4.719032     0.457640
O     1.755023     4.701414     1.228646
H     1.397259     3.781231     1.306203
H    -4.425579    -2.633398     4.243598
O    -5.317492    -2.290955     4.038328
H    -5.176668    -1.514237     3.458311
H    -5.851294    -3.193844     1.322878
O    -6.314820    -3.750046     1.991134
H    -6.125673    -3.314923     2.841973
H     1.676605     3.469577     6.869634
O     1.051582     3.980514     6.334028
H     0.270636     4.139946     6.908037
H     4.993979    -2.169805     3.626029
O     5.014072    -1.451212     4.289925
H     4.202576    -0.894838     4.132260
H     2.381921    -5.576494     4.847990
O     2.762361    -6.460103     4.588375
H     2.017318    -7.041723     4.414416
H     2.256530    -4.519676    -6.781335
O     2.087010    -5.007666    -5.965568
H     1.821818    -4.316217    -5.310564
H     6.435184    -4.105499    -0.491673
O     7.188226    -4.508267    -0.027882
H     7.695808    -4.931449    -0.748197
H    -1.727605     4.484593     7.706989
O    -0.826832     4.589237     8.091412
H    -0.652715     5.549384     8.115038
H    -5.118152     5.692042    -5.596226
O    -4.510634     4.928479    -5.615827
H    -3.752912     5.142588    -6.181273
H     3.282354    -2.531821    -8.427956
O     3.194060    -3.064164    -7.626514
H     4.070350    -3.039883    -7.197008
H    -0.661516     8.825819    -2.276102
O    -0.538581     9.654666    -1.757773
H     0.223181     9.480356    -1.180325
H     2.060255    -0.912038     5.218634
O     1.485773    -1.435223     5.807022
H     1.582562    -1.090878     6.704316
H     5.204764    -2.028137    -5.683023
O     5.551293    -2.794620    -6.204527
H     5.276919    -3.584357    -5.686878
H     5.686785    -5.214993     4.697633
O     5.164269    -5.129304     5.524063
H     4.442697    -5.761295     5.438586
H    -4.031627     1.249910     7.030706
O    -3.989612     1.736176     7.891523
H    -4.877046     2.182580     7.983970
H    -1.853591     9.614567    -0.744775
O    -2.714287     9.488697    -0.270676
H    -3.325272     10.116658    -0.659693
H    -5.950266     4.688994    -2.938679
O    -6.858568     4.570147    -3.283884
H    -6.767693     3.867084    -3.960224
H     0.089502    -7.065480    -1.134048
O     0.553463    -7.501444    -0.386264
H    -0.126024    -7.695565     0.262574
H    -7.640124     3.791083    -1.974877
O    -7.902509     3.204793    -1.234716
H    -7.758923     2.295733    -1.573040
H     3.964842    -0.891314     6.995235
O     3.972597     0.072893     6.986123
H     4.785084     0.363065     6.554964
H     2.255344     5.794901    -1.174461
O     3.190889     5.502367    -1.059579
H     3.367878     4.961767    -1.852390
H     6.544533    -5.931543     0.684451
O     6.175635    -6.667570     1.218319
H     5.270970    -6.390313     1.444604
H    -3.867994     4.820689     7.809468
O    -3.295568     4.382676     7.138909
H    -3.466665     3.431342     7.249225
H     5.756496    -7.947515     0.150715
O     5.469168    -8.634863    -0.486786
H     4.640012    -8.309645    -0.881393
H    -0.538458     2.048419     7.687676
O    -1.205579     1.924267     6.988248
H    -1.946243     1.493723     7.429044
H    -6.387529    -0.120344     1.064632
O    -6.707813    -0.204191     0.151625
H    -7.626530    -0.474886     0.170440
H    -5.376760    -3.063790    -0.583566
O    -5.124211    -2.360829     0.041157
H    -5.694628    -1.588258    -0.146582
H     4.313496     5.576835     0.326621
O     4.646876     5.677976     1.231981
H     3.952047     6.188421     1.683566
H    -9.047623    -1.745182    -2.251811
O    -8.500149    -1.543177    -1.465734
H    -8.627537    -2.279303    -0.827440
H    -5.525216     3.469102    -5.526740
O    -6.042967     2.758798    -5.111961
H    -5.376794     2.173461    -4.697270
H     3.179058    -0.892056    -5.646720
O     2.323518    -1.011972    -6.113277
H     2.408995    -1.861411    -6.585911
H     8.113132    -1.354371    -6.017687
O     8.121074    -2.218142    -5.560805
H     7.264928    -2.618144    -5.811559
H     7.619882     0.986073    -6.299723
O     7.431232     0.137621    -6.712788
H     6.449889     0.087624    -6.749538
H    -7.866309    -3.690227     0.933673
O    -8.544547    -3.584520     0.248864
H    -8.445492    -4.344292    -0.352215
H    -2.411543     8.737876     1.293574
O    -2.261056     8.149886     2.047095
H    -1.491054     7.596338     1.824937
H    -4.450253     6.437407     3.497566
O    -4.619311     6.863804     2.641081
H    -3.855604     7.449349     2.501699
H     3.398768     3.443926    -3.570721
O     3.245444     4.413244    -3.477816
H     2.280607     4.477782    -3.586107
H    -6.118890    -1.606182    -3.438925
O    -6.202357    -2.185248    -2.654932
H    -6.986299    -1.877597    -2.146466
H     6.460168     1.050536     4.749082
O     6.065718     1.589735     5.451496
H     6.254052     2.508249     5.160030
H     1.360530     1.718883    -5.816536
O     1.165515     1.123569    -5.062022
H     1.528910     0.260217    -5.331059
H    -2.445899     3.027607     10.479005
O    -2.274110     2.097648     10.240762
H    -2.854974     1.943479     9.478605
H     7.620644    -0.498192     3.094259
O     6.870637     0.077670     3.262559
H     6.178069    -0.522487     3.641646
H    -5.664883    -8.053435    -0.693962
O    -4.930457    -8.122149    -0.047152
H    -4.934265    -7.304606     0.474592
H    -5.179630    -0.120115    -4.712110
O    -5.796506    -0.831956    -4.952236
H    -6.634576    -0.390375    -5.150809
H     1.889290    -0.202658    -7.507695
O     1.688350     0.268782    -8.352010
H     2.265274    -0.137062    -9.004507
H     4.872520    -1.399008    -9.294366
O     3.947602    -1.170073    -9.577329
H     3.927879    -1.288851    -10.526260
H     7.556066    -2.570680     4.211712
O     7.703468    -2.607069     3.252339
H     7.210315    -3.398076     2.980501
H     6.713241    -5.895305     2.697606
O     6.774826    -5.219707     3.398399
H     7.650451    -5.304889     3.816689
H    -1.826564     8.949854     3.497644
O    -1.579461     9.255379     4.395876
H    -2.428560     9.387791     4.850854
H    -7.391809     1.566345    -5.249611
O    -7.966886     0.822290    -5.004910
H    -8.868571     1.221976    -4.929476
H     6.925799    -1.088779    -8.393560
O     6.344036    -1.809983    -8.657216
H     6.115539    -2.259337    -7.825135
H    -1.676308     6.238208    -7.020392
O    -2.074562     5.413154    -6.746734
H    -1.826736     5.282668    -5.782865
H    -0.013680     3.312661     9.026470
O     0.182997     2.393336     9.284423
H    -0.620234     2.128865     9.782826
H     6.752381    -2.782638    -2.693537
O     6.221655    -3.526623    -2.352419
H     6.690091    -4.337672    -2.598267
H    -4.080343    -3.074849    -4.937905
O    -4.233883    -2.962674    -5.902916
H    -4.781190    -2.169689    -5.959702
H     1.969047     2.189050     8.471544
O     2.634009     2.299282     7.782211
H     3.056588     1.429068     7.667931
H    -6.912892    -5.200985    -1.389966
O    -7.828407    -5.470592    -1.636080
H    -7.961334    -5.068423    -2.519275
H    -3.833503     5.256494     5.699257
O    -3.802206     6.026689     5.111373
H    -2.868182     6.321165     5.204043
H    -7.888850     0.088465    -1.964024
O    -7.399096     0.811755    -2.378171
H    -7.626812     0.799824    -3.331448
H     5.832126     0.129234     0.421652
O     5.610024     0.851168     1.042020
H     6.119856     0.656393     1.855280
H    -6.419818     3.404477     7.291554
O    -6.308450     2.922737     8.150720
H    -6.920693     2.167272     8.101212
H     2.272074    -8.074544    -0.830637
O     2.949445    -8.062611    -1.526577
H     2.724591    -8.777007    -2.139322
H    -2.747006    -3.964279    -6.189927
O    -1.993328    -4.530280    -5.957649
H    -1.717687    -4.238474    -5.060329
H    -5.654354     3.765419     5.307664
O    -6.318100     4.166444     5.907662
H    -6.136558     5.107302     5.911750
H    -1.023259    -7.115770    -3.153457
O    -0.550917    -6.445692    -2.625593
H     0.356798    -6.376814    -3.005851
H     4.436963     2.019036     5.136731
O     3.495289     2.258290     5.016454
H     3.111012     2.275489     5.898266
H     4.101494     4.660152     6.307633
O     4.182505     5.390067     5.689317
H     3.615175     5.149250     4.918247
H     2.758019     3.619600     3.929146
O     2.580015     4.559537     3.762940
H     2.461257     4.657664     2.796335
H     9.389131     0.208531    -1.059394
O     8.582999     0.372115    -0.566245
H     8.406509    -0.446461    -0.072919
H    -2.116514     5.320502     10.654025
O    -2.835019     4.689313     10.887373
H    -3.055091     4.870705     11.801231
H     7.967209    -3.010797     0.340096
O     8.388496    -2.164110     0.594999
H     8.322045    -2.158620     1.557260
H     5.364344     3.666332     3.532764
O     6.020020     3.931926     4.199541
H     5.607227     4.650603     4.700248
H    -4.223095     5.020748     9.787906
O    -4.848669     5.179659     9.061162
H    -5.475883     4.444412     9.055668
H    -7.014727    -3.478370    -3.480517
O    -7.635126    -4.090257    -3.929121
H    -7.113669    -4.532844    -4.630675
H     0.013740     6.134716     10.775026
O    -0.850820     6.465678     10.527108
H    -0.734325     6.895630     9.660678
H     2.586733     1.493216    -4.098000
O     3.465151     1.845859    -3.859212
H     3.784777     1.331339    -3.088071
H    -7.185998    -0.206474     7.321550
O    -7.559545     0.369453     8.019399
H    -8.511241     0.254734     7.951453
H    -2.749682    -9.872872    -0.818717
O    -2.686475    -8.931489    -0.980034
H    -3.592225    -8.564485    -0.739367
H    -10.070450     3.075822    -4.898886
O    -10.188208     2.158576    -4.617760
H    -10.404101     2.243238    -3.668091
H    -2.073895    -3.028067     4.614408
O    -2.948539    -3.466089     4.687900
H    -2.948326    -4.081695     3.930845
H    -0.186423    -7.980437     2.497828
O     0.640427    -7.770043     2.944891
H     1.358196    -8.066868     2.358057
H     6.696703    -2.373280     6.404290
O     7.146307    -3.083432     5.941511
H     6.516196    -3.818170     5.903067
H    -5.408419    -1.700496     6.860516
O    -6.114793    -1.306418     6.314988
H    -6.038569    -1.787337     5.459285
H     0.835612     3.028752    -7.109203
O     1.753284     2.697951    -7.164949
H     1.739505     1.949793    -7.790021
H    -3.960528     8.762925     6.672216
O    -3.960108     8.760155     5.714827
H    -4.084699     7.832225     5.448160
H    -2.061081     10.313663    -2.737818
O    -2.962555     10.495488    -3.040040
H    -2.890334     11.128566    -3.753671
H     9.402419    -4.060548     4.058386
O     9.122678    -4.738227     4.681448
H     8.692509    -4.265428     5.404900
H    -0.738185    -5.999936    -5.830557
O    -0.035008    -6.566678    -5.496809
H     0.800724    -6.105405    -5.714037
H     1.821701     8.276044     0.667298
O     1.518914     8.597531    -0.210544
H     2.333762     8.634776    -0.740804
H     3.497345     2.925431    -6.655521
O     4.324776     2.635462    -6.245692
H     4.079048     2.362360    -5.336737
H     3.730129     7.124032    -1.225404
O     3.936408     8.059567    -1.439345
H     4.305920     8.002701    -2.332498
H     4.393969    -0.012622    -7.902780
O     4.771039     0.134229    -7.033455
H     4.589206     1.066290    -6.790456
H     6.026099     1.931912    -0.466868
O     6.591900     2.124568    -1.228414
H     7.416208     1.644720    -1.033798
H     6.677857    -8.433580    -1.591650
O     7.314363    -8.223729    -2.328036
H     7.680461    -9.058425    -2.615378
H    -5.305129    -5.789681    -5.399724
O    -5.921963    -5.117873    -5.715581
H    -5.370469    -4.349874    -5.952259
H     0.673931     7.179294     7.604154
O    -0.227659     7.208356     7.963123
H    -0.782944     7.220886     7.145561
H    -8.901032    -2.833494    -4.098070
O    -9.421776    -2.024870    -3.931874
H    -9.134817    -1.360445    -4.562071
H    -2.415695    -5.988273    -2.133678
O    -3.293385    -5.701740    -2.403529
H    -3.480193    -6.077312    -3.288899
H    -2.990252    -5.901842    -5.400565
O    -3.590642    -6.511221    -4.928522
H    -3.108920    -7.331359    -4.760570
H    -1.391398     3.723549    -6.979204
O    -0.851188     2.967975    -6.707734
H    -1.088206     2.182388    -7.256984
H    -0.205114     0.413194    -8.209588
O    -1.101204     0.648923    -7.926760
H    -1.276919     0.125898    -7.128542
H    -10.425732     4.054991    -2.735594
O    -10.493994     3.276819    -2.166914
H    -9.664600     3.250041    -1.657941
H     4.575005     4.081237     1.727161
O     4.366663     3.160601     2.006798
H     5.082034     2.584160     1.725312
H     6.482954     1.394856    -4.210436
O     6.179515     0.771223    -3.516217
H     6.209988     1.267229    -2.672724
H     9.627819    -2.228384    -0.916741
O     9.904988    -2.014361    -1.816453
H     9.104819    -1.675946    -2.260492
H     9.965005    -3.324542    -3.084978
O     9.698341    -3.976936    -3.759719
H     9.304875    -3.469734    -4.480399
H    -7.704946    -8.572789    -1.657019
O    -6.966957    -7.978888    -1.786513
H    -7.344182    -7.065655    -1.777066
H     4.158526     6.078682    -3.815686
O     4.819716     6.779878    -3.730914
H     5.655760     6.325853    -3.592700
H     0.093117    -8.172966    -5.203671
O     0.116875    -9.155807    -5.071348
H     0.267709    -9.519969    -5.943682
H    -2.338915    -8.673600    -2.704856
O    -2.104543    -8.410709    -3.614602
H    -1.457811    -9.029614    -3.972324
H     2.177314    -10.818502    -3.481045
O     2.131995    -9.863893    -3.457980
H     1.346733    -9.593165    -3.984462
H     6.833360     3.327245    -4.566593
O     6.891892     2.648622    -5.267002
H     6.098587     2.781307    -5.808082
H    -3.761489    -3.372279     7.666540
O    -3.616420    -2.648291     7.051674
H    -3.390511    -3.072950     6.197221
H    -0.640587    -3.365348    -6.715790
O    -0.010222    -2.633996    -6.723840
H    -0.491916    -1.858254    -6.382710
H     0.656600     0.470168     8.753245
O     0.644470    -0.251196     8.119421
H    -0.288826    -0.511482     8.041390
H    -5.835994     7.368129    -4.252315
O    -6.338765     6.749154    -4.813329
H    -6.625914     6.018367    -4.221942
H    -4.280540     9.103799    -3.264457
O    -4.816538     8.307910    -3.157920
H    -4.408471     7.828575    -2.418679
H    -9.713344     5.797814    -4.648029
O    -10.246976     4.993369    -4.484296
H    -11.127287     5.194067    -4.803996
H     2.761021     6.519065     6.144998
O     1.800865     6.615678     6.242265
H     1.456563     5.702848     6.139890
H     4.799693     8.547616     0.087960
O     5.116816     8.549109     1.009002
H     5.523398     7.684764     1.140698
H     4.138243    -7.428694    -4.329383
O     3.380618    -7.713806    -4.872157
H     3.099755    -8.554312    -4.495435
H     0.371228     8.663498     4.236222
O     1.048992     8.018571     4.009010
H     1.274615     7.526195     4.824150
H     5.232339     4.189329    -3.151107
O     6.193772     4.159391    -3.097813
H     6.402240     3.578323    -2.349557
H    -2.512800    -1.322355     7.685768
O    -2.047619    -0.611883     8.162546
H    -2.347758    -0.707451     9.070082
H    -9.029566     7.937914    -4.149427
O    -8.966114     7.352959    -4.905903
H    -8.008959     7.188457    -5.040264
H     3.523614    -8.979075     1.104142
O     2.846604    -8.347190     1.351717
H     3.320656    -7.541730     1.632119
H     3.579488     8.173725     1.832881
O     2.788905     7.610372     1.945344
H     2.342379     7.846783     2.771104
N    -4.866397    -0.667220     9.219076
H    -4.569528     0.155495     8.786745
H    -5.807175    -0.516744     9.359177
