39
Coordinates from ORCA-job grain_mol_opt.QMRegion
  H   -3.79400692524878      0.05057195199152      4.85276669386133
  O   -4.38584830349330      0.50789072954177      5.50661146118640
  H   -5.08557095736985     -0.13345706691581      5.70801437028614
  H   -4.05374871193886      1.27413232017301      6.97751552749888
  O   -3.93280492071090      1.94655921151360      7.69272781218175
  H   -4.84282212573120      2.25934418913370      7.92287623934683
  H   -3.90689911874967      4.96814448399540      7.74653913807279
  O   -3.33590018898625      4.52300620844259      7.07906612999595
  H   -3.56773081517491      3.57467406796426      7.13288656171563
  H   -0.63954032644921      2.17251021938730      7.62808945768600
  O   -1.24514179717577      2.00859655245822      6.88628259365683
  H   -2.09071192882580      1.78863402108958      7.28931042414375
  H   -2.73192994951024      3.07899910359972     10.42725554734705
  O   -2.55131854576012      2.16805010122691     10.12808413029407
  H   -3.02433842940886      2.09812523537806      9.27361275577512
  H   -0.17664589507311      3.44451820455599      8.97528293365082
  O   0.10631244329685      2.54373482011802      9.24789005603461
  H   -0.66895306896801      2.23479433296750      9.75206485464196
  H   -6.46826260448851      3.44940056429658      7.29122703588153
  O   -6.29355892483415      3.04078898324959      8.17768876036767
  H   -6.86472323344085      2.26481069253188      8.25183936116496
  H   -6.54362483808673     -0.41523819612874      7.75269684928591
  O   -6.63600889442049      0.12708258326061      8.56222542656675
  H   -7.33376274613616     -0.31398323547477      9.05590320159023
  H   -5.23881826735319     -2.08135990171833      6.80332483233946
  O   -5.99759712709665     -1.57345194135870      6.44952913775032
  H   -6.05928863488082     -1.89832451436191      5.52501220257019
  H   -3.61632851620539     -3.76069510485053      7.60831766985364
  O   -3.62476780225103     -2.96067620205818      7.07538687152418
  H   -3.41107889165170     -3.26007938812712      6.16171737241582
  H   0.69390710956570      0.51335626727726      8.39818250420137
  O   0.71401878504751     -0.43144344001507      8.21547135868754
  H   -0.23256161598000     -0.66775710154682      8.16157631400530
  H   -2.43168736747922     -1.52684499726511      7.56341318965797
  O   -2.06840065239298     -0.73134903220102      7.97921368245396
  H   -2.66367423236673     -0.60956063493207      8.74439671176124
  O   -3.95915439147924     -0.38282189230008     10.06826665700543
  H   -4.78301786909076     -0.15349016308834      9.61076744748374
  H   -3.64167186616156      0.45902580409197     10.43322403299764
