36

H    -4.638711    -5.082003    -1.539116
O    -5.376238    -4.788208    -0.960359
H    -5.126816    -5.133394    -0.079084
H    -5.884845    -8.038705    -0.312352
O    -5.176419    -8.173054     0.348438
H    -5.077726    -7.314926     0.800488
H    -6.889499    -5.209840    -1.371563
O    -7.808132    -5.489481    -1.637236
H    -7.911169    -5.048708    -2.512277
H    -0.980632    -7.136854    -3.121978
O    -0.537369    -6.425010    -2.626112
H     0.367680    -6.334307    -3.020102
H    -7.017822    -3.365623    -3.461999
O    -7.623547    -4.002358    -3.911927
H    -7.105680    -4.334196    -4.678274
H    -2.788084    -9.744260    -0.594579
O    -2.891301    -8.817851    -0.827318
H    -3.793472    -8.575582    -0.476520
H    -5.413043    -5.627126    -5.682004
O    -6.016485    -4.921371    -5.956935
H    -5.405884    -4.169772    -6.116087
H    -2.471539    -5.787938    -2.241213
O    -3.389114    -5.641379    -2.507596
H    -3.478772    -5.941126    -3.441583
H    -3.004462    -5.774691    -5.558328
O    -3.594065    -6.414170    -5.102540
H    -3.029877    -7.197393    -4.935501
H    -7.692051    -8.571119    -1.729837
O    -6.954755    -7.957922    -1.794081
H    -7.372322    -7.039162    -1.800444
H    -2.918451    -8.715089    -3.408634
O    -2.138997    -8.332267    -3.858533
H    -1.620255    -9.043074    -4.254713
N    -4.869365    -8.961022    -3.486771
H    -5.143296    -8.668846    -4.361306
H    -5.536056    -8.564088    -2.892893
