603

H     0.234283     3.026261    -0.633558
O     0.751133     2.358410    -1.133410
H     1.692353     2.481890    -0.865796
H    -0.034743    -1.333996     3.172274
O     0.356355    -0.630931     2.630771
H    -0.117943     0.182237     2.871060
H    -2.366746     2.415406    -0.477070
O    -2.152704     1.939004     0.342783
H    -2.174787     0.992564     0.111709
H    -4.620481     0.545504     2.243803
O    -4.940528    -0.386727     2.254718
H    -4.443939    -0.862623     1.580888
H     0.094895    -0.322666     0.978287
O    -0.108804    -0.079120     0.054660
H     0.234414     0.816312    -0.063644
H    -0.119311    -3.606275     3.786569
O    -0.391344    -2.777191     4.213745
H     0.260108    -2.614872     4.912593
H    -4.842144     2.534911     1.406150
O    -4.199703     2.120174     2.014561
H    -3.361279     2.101007     1.494710
H    -3.221599     3.916277    -2.139026
O    -2.484767     3.315209    -1.915953
H    -2.133441     3.030451    -2.779679
H    -0.111750    -3.815469     0.510931
O     0.234003    -3.001507     0.931131
H    -0.549566    -2.514090     1.250646
H    -2.343260    -1.551753     2.504436
O    -2.160822    -2.012922     1.659747
H    -2.421944    -1.420882     0.935140
H     2.084847    -1.453515    -1.114282
O     2.321171    -1.711834    -0.199499
H     1.533055    -2.139543     0.186473
H    -1.346900     1.809923     1.959091
O    -1.433022     1.409811     2.834763
H    -1.410442     2.119305     3.501647
H     0.212309    -2.703115    -1.558679
O    -0.541006    -2.087856    -1.604386
H    -0.354376    -1.366213    -0.967365
H    -3.426399    -2.917145    -0.357410
O    -2.713400    -3.409621    -0.784855
H    -2.002321    -2.780571    -1.004623
H     2.817418     0.091993     2.944311
O     2.921177    -0.095744     3.904630
H     3.019954     0.793984     4.313468
H    -3.481882     6.389725    -0.454353
O    -3.244324     7.055638    -1.151605
H    -3.096847     7.897380    -0.677131
H     3.936778     0.552217     1.192359
O     2.986069     0.374335     1.313742
H     2.741870    -0.373798     0.731448
H    -5.763312     0.867617    -1.533618
O    -4.850755     1.190435    -1.410654
H    -4.955443     2.016226    -0.893586
H    -1.150382     5.380810     2.276637
O    -1.778841     4.636456     2.161664
H    -1.854128     4.213887     3.022242
H     3.532730     2.736818     0.447252
O     3.278081     2.701439    -0.490252
H     3.604916     1.859900    -0.848870
H     1.482146    -4.697914    -2.259279
O     1.553606    -3.924139    -1.682201
H     2.347966    -3.464490    -2.035877
H    -0.913997    -0.074884    -2.514343
O    -0.279430     0.577180    -2.838529
H    -0.011868     1.153882    -2.099873
H     1.703710    -4.699811    -0.189545
O     1.812729    -5.341355     0.548889
H     1.344387    -6.149117     0.251153
H    -1.234193    -3.252151    -2.862339
O    -1.067434    -3.932129    -3.528245
H    -0.941542    -4.782475    -3.065270
H    -2.714115     3.282284     4.766204
O    -1.732103     3.284049     4.731897
H    -1.436609     2.866030     5.558937
H     1.038663     4.995790     4.125537
O     0.093569     5.231667     4.189479
H    -0.382713     4.428691     4.440146
H    -1.726894    -4.649701    -0.358878
O    -0.961938    -5.194717    -0.081746
H    -1.308454    -5.884240     0.494014
H    -3.885868     5.855558    -2.510468
O    -4.241914     5.024425    -2.841929
H    -4.094534     4.994457    -3.811550
H    -2.407989    -3.699314     1.958406
O    -2.427653    -4.605199     2.329816
H    -1.487959    -4.848299     2.462277
H    -4.701882    -2.951562    -2.856732
O    -3.853051    -3.185226    -3.269903
H    -3.522388    -3.983210    -2.811893
H     0.400769     1.338002     4.648190
O     0.904849     2.101336     4.317251
H     0.959834     2.752431     5.029021
H    -4.661848    -5.149689    -1.542213
O    -5.358148    -4.796430    -0.961647
H    -5.140879    -5.157422    -0.081165
H     2.297937    -6.475506    -4.064489
O     1.967951    -6.150297    -3.206830
H     2.404296    -6.729989    -2.549934
H     0.451374    -3.365545    -3.999918
O     1.252671    -2.998982    -4.426060
H     0.929086    -2.621587    -5.270437
H     2.001110    -1.786760     2.986605
O     2.151035    -2.716910     2.762980
H     1.460012    -2.924162     2.099249
H    -3.018804    -1.786000    -3.171708
O    -2.592771    -0.901499    -3.103928
H    -3.247681    -0.251578    -3.415999
H    -3.139112     4.973486     1.157524
O    -3.921845     5.353649     0.711061
H    -4.329733     5.908741     1.423860
H     0.927372     2.225635     2.625892
O     1.022182     2.227409     1.654522
H     1.745060     1.601729     1.481129
H     0.232664     5.652300    -0.698720
O     0.754263     6.314984    -1.206476
H     0.902872     7.111161    -0.647401
H     0.417498     7.012431     2.655770
O     0.044484     6.634448     1.842439
H     0.704631     5.964383     1.569753
H    -2.431959     0.197687     3.387217
O    -2.653640    -0.617866     3.889462
H    -1.889449    -0.665575     4.505328
H    -0.827121     0.513344     6.067039
O    -0.558394     0.004318     5.284976
H     0.153057    -0.607568     5.560973
H     0.727043    -5.017151     1.974457
O     0.189726    -5.128724     2.781998
H     0.332324    -6.051567     3.047795
H    -2.124314    -8.090281     0.442696
O    -1.794621    -7.607838     1.228314
H    -2.576571    -7.296904     1.691966
H    -0.342178     6.870894    -2.254946
O    -1.090170     7.297278    -2.746025
H    -1.876917     7.170359    -2.178000
H    -1.068595     4.301857     0.633983
O    -0.700648     4.367951    -0.263576
H    -1.411722     4.131897    -0.893501
H    -4.349795     2.736489     3.581405
O    -4.338588     2.900305     4.547347
H    -4.426040     2.014942     4.951149
H     2.062254    -3.624072     4.237863
O     2.001282    -4.100340     5.088990
H     2.516478    -3.570699     5.718990
H     4.704954    -3.227256     0.817336
O     4.538222    -3.144850    -0.147533
H     3.680685    -2.663869    -0.222295
H    -2.710124    -0.737180    -1.309458
O    -3.030253    -0.470347    -0.431284
H    -3.830490     0.059058    -0.630078
H    -1.626144    -0.735002    -4.596511
O    -1.123776    -0.516139    -5.402456
H    -0.409456     0.075541    -5.118504
H     1.790050    -1.710595    -3.370603
O     1.889412    -0.967786    -2.743683
H     1.113523    -0.386927    -2.866457
H     3.691654    -3.160877     2.535935
O     4.649288    -3.392766     2.455236
H     4.701293    -4.353911     2.575871
H     3.446444    -6.162076     3.092536
O     3.796869    -5.956856     2.191250
H     3.056941    -5.605651     1.655325
H    -3.340337     1.641574    -4.117469
O    -4.185918     1.173303    -3.923933
H    -4.396531     1.314046    -2.965079
H    -5.041478     4.159778     0.152775
O    -5.483807     3.295773     0.049024
H    -6.415505     3.419725    -0.227110
H     6.744457    -1.210026    -1.385987
O     5.976246    -1.060382    -0.828509
H     5.555290    -1.927722    -0.633239
H     4.588543    -3.181840    -2.491537
O     3.718549    -3.004448    -2.900529
H     3.714272    -3.618879    -3.660275
H     4.487353    -2.353384     5.606860
O     4.146459    -2.821828     6.399129
H     4.478155    -3.727501     6.311000
H    -0.659048     6.307051     5.108408
O    -1.250977     6.878002     5.658887
H    -1.276912     7.766535     5.232070
H     4.712422    -0.155508    -1.470407
O     3.945272     0.391553    -1.724297
H     3.248441    -0.204336    -2.053784
H    -0.726565     4.541933    -3.977497
O    -1.508429     5.089409    -4.176757
H    -1.350346     5.953153    -3.750909
H     0.679367     3.208027    -2.615700
O     0.682152     3.590364    -3.521766
H     0.722354     2.830354    -4.112302
H    -5.368815    -5.190149     1.827996
O    -4.676935    -5.785314     1.464332
H    -3.832888    -5.374756     1.732009
H     7.871418    -1.708044    -4.068241
O     7.620802    -1.398898    -3.165087
H     7.136521    -0.552189    -3.313537
H     3.668687    -5.065012    -5.316345
O     4.435766    -4.697410    -4.838166
H     4.821136    -5.413290    -4.299353
H    -3.727314    -0.003181     4.988990
O    -4.320129     0.460350     5.629352
H    -4.981625    -0.196559     5.921737
H     3.460175    -5.962110    -0.549131
O     4.331621    -5.716674    -0.871746
H     4.413105    -4.755603    -0.723069
H     4.995415    -0.340988    -4.167655
O     4.454141    -1.047513    -4.558024
H     4.130785    -1.634077    -3.841540
H    -1.168373     1.591535    -3.891324
O    -1.818532     2.217753    -4.268276
H    -1.465749     2.552321    -5.115513
H     4.866901    -6.337388    -2.356910
O     5.192617    -6.658350    -3.226695
H     6.009657    -7.144119    -3.048353
H     8.723166    -5.119947    -2.978863
O     8.033662    -5.537975    -2.418526
H     8.063779    -6.494842    -2.526303
H     2.385000     4.699684     0.491823
O     1.811846     4.678848     1.267625
H     1.450741     3.759591     1.340825
H    -4.374073    -2.649557     4.273907
O    -5.267819    -2.304432     4.080082
H    -5.131545    -1.521046     3.507643
H    -5.826464    -3.187134     1.366455
O    -6.287002    -3.746139     2.034644
H    -6.091308    -3.316709     2.886520
H     1.753423     3.407390     6.909546
O     1.118920     3.932962     6.396853
H     0.350559     4.080045     6.975587
H     5.040222    -2.219940     3.597912
O     5.067790    -1.505322     4.265873
H     4.257412    -0.945238     4.117820
H     2.423333    -5.623465     4.818025
O     2.798294    -6.506871     4.549929
H     2.050025    -7.084803     4.377737
H     2.216264    -4.494161    -6.803573
O     2.050626    -4.986460    -5.989586
H     1.793337    -4.298072    -5.328395
H     6.443064    -4.135647    -0.543048
O     7.197689    -4.544251    -0.087026
H     7.698372    -4.965166    -0.813513
H    -1.613683     4.481562     7.747990
O    -0.772091     4.614331     8.248288
H    -0.519825     5.559923     8.172161
H    -5.108848     5.739263    -5.500198
O    -4.504147     4.973675    -5.528436
H    -3.750315     5.187982    -6.098992
H     3.237752    -2.500462    -8.445410
O     3.153103    -3.036891    -7.646280
H     4.032818    -3.019176    -7.223497
H    -0.615513     8.834730    -2.194596
O    -0.485554     9.659436    -1.671366
H     0.280624     9.478905    -1.101890
H     2.121715    -0.960266     5.220386
O     1.547744    -1.485192     5.807409
H     1.651485    -1.148724     6.706846
H     5.182449    -2.021409    -5.711761
O     5.521951    -2.786060    -6.240391
H     5.248342    -3.577880    -5.725548
H     5.729033    -5.274011     4.645072
O     5.212410    -5.190852     5.475484
H     4.488524    -5.820398     5.392026
H    -3.895488     1.120865     7.068234
O    -3.695080     1.602971     7.906491
H    -4.572727     1.978173     8.178047
H    -1.793049     9.618399    -0.648809
O    -2.650152     9.493003    -0.168036
H    -3.261987     10.125209    -0.548849
H    -5.924987     4.723104    -2.842792
O    -6.836452     4.609775    -3.181304
H    -6.753672     3.910966    -3.863080
H     0.081060    -7.066502    -1.156619
O     0.548670    -7.508233    -0.414469
H    -0.126904    -7.704581     0.237688
H    -7.611336     3.826343    -1.871383
O    -7.869120     3.236192    -1.132573
H    -7.733146     2.328860    -1.478710
H     4.039869    -0.955438     6.983815
O     4.051663     0.008770     6.976559
H     4.864280     0.296302     6.543880
H     2.298083     5.785087    -1.133815
O     3.232954     5.487704    -1.026589
H     3.402488     4.951796    -1.824332
H     6.553913    -5.969354     0.621314
O     6.185772    -6.707143     1.153257
H     5.284056    -6.427516     1.387984
H    -3.829202     4.605633     7.857257
O    -3.225214     4.223731     7.177375
H    -3.432441     3.272813     7.210592
H     5.753466    -7.978990     0.081164
O     5.458324    -8.661259    -0.558192
H     4.627888    -8.330071    -0.944948
H    -0.474036     1.983831     7.742880
O    -1.113025     1.956524     7.008512
H    -1.977813     1.792407     7.405124
H    -6.353365    -0.109169     1.134024
O    -6.679167    -0.185575     0.222626
H    -7.598788    -0.453214     0.244140
H    -5.364787    -3.046316    -0.540442
O    -5.105538    -2.348133     0.087092
H    -5.674006    -1.572323    -0.092825
H     4.367387     5.548987     0.350633
O     4.707034     5.643055     1.254446
H     4.017858     6.154304     1.713513
H    -9.042857    -1.701791    -2.173168
O    -8.488671    -1.507235    -1.389766
H    -8.614791    -2.247161    -0.755628
H    -5.524165     3.517885    -5.441601
O    -6.041532     2.807184    -5.027005
H    -5.374609     2.216405    -4.621532
H     3.161649    -0.877398    -5.653472
O     2.302033    -0.991112    -6.114019
H     2.380879    -1.837735    -6.592936
H     8.091197    -1.357282    -6.063663
O     8.098781    -2.223717    -5.611877
H     7.239409    -2.618918    -5.859070
H     7.605183     0.986842    -6.327899
O     7.409865     0.141612    -6.744421
H     6.428122     0.095861    -6.774369
H    -7.846336    -3.673328     0.990773
O    -8.528487    -3.559151     0.311362
H    -8.438030    -4.315743    -0.295120
H    -2.339409     8.731627     1.389388
O    -2.183292     8.140014     2.138999
H    -1.418837     7.583801     1.905123
H    -4.372041     6.430029     3.595537
O    -4.543266     6.856877     2.739196
H    -3.779339     7.441497     2.598533
H     3.414247     3.444646    -3.552271
O     3.265375     4.413934    -3.451622
H     2.300160     4.483012    -3.553309
H    -6.122573    -1.568157    -3.381016
O    -6.202125    -2.151137    -2.599462
H    -6.981843    -1.844098    -2.084173
H     6.526895     0.987222     4.730050
O     6.137995     1.523738     5.437657
H     6.330488     2.443085     5.152271
H     1.352325     1.741602    -5.793627
O     1.160686     1.142467    -5.041176
H     1.518564     0.279367    -5.318454
H    -2.336110     2.841436     10.585117
O    -2.169898     1.939724     10.272510
H    -2.785273     1.791957     9.542036
H     7.669280    -0.554840     3.056899
O     6.922568     0.022643     3.234233
H     6.230868    -0.577565     3.614819
H    -5.674337    -8.034468    -0.679907
O    -4.935127    -8.109664    -0.039178
H    -4.932230    -7.295580     0.487714
H    -5.186959    -0.077868    -4.652100
O    -5.808562    -0.785797    -4.891416
H    -6.646295    -0.339708    -5.081271
H     1.860983    -0.171513    -7.500478
O     1.655575     0.306127    -8.340187
H     2.225860    -0.097866    -8.999653
H     4.825886    -1.368659    -9.316664
O     3.899768    -1.134299    -9.591133
H     3.872473    -1.247117    -10.540618
H     7.604994    -2.634564     4.161760
O     7.744119    -2.664907     3.200917
H     7.246798    -3.452973     2.928133
H     6.737674    -5.946272     2.633480
O     6.806836    -5.275004     3.337690
H     7.685153    -5.366070     3.749250
H    -1.743671     8.929358     3.596280
O    -1.482321     9.222379     4.494053
H    -2.325496     9.339450     4.976466
H    -7.396385     1.620842    -5.162438
O    -7.972300     0.877673    -4.917108
H    -8.871997     1.280345    -4.833033
H     6.887334    -1.072250    -8.429232
O     6.300329    -1.789214    -8.692807
H     6.076562    -2.243029    -7.861898
H    -1.675504     6.280188    -6.947319
O    -2.075002     5.455147    -6.675430
H    -1.820544     5.317863    -5.714406
H     0.136899     3.254415     9.100505
O     0.283752     2.317017     9.301170
H    -0.507263     2.062147     9.827756
H     6.749114    -2.800532    -2.738379
O     6.217743    -3.544426    -2.398009
H     6.681141    -4.355817    -2.652293
H    -4.101042    -3.035244    -4.904308
O    -4.261041    -2.916378    -5.867389
H    -4.805886    -2.121140    -5.915424
H     2.075804     2.115345     8.497668
O     2.721989     2.232627     7.792214
H     3.149452     1.365253     7.671670
H    -6.915945    -5.172095    -1.349064
O    -7.834282    -5.436412    -1.589680
H    -7.972382    -5.028548    -2.469491
H    -3.745182     5.228891     5.781051
O    -3.721450     6.001177     5.196763
H    -2.790207     6.297663     5.272794
H    -7.874883     0.124663    -1.883012
O    -7.384841     0.848656    -2.295582
H    -7.619716     0.844032    -3.247345
H     5.863421     0.095844     0.401569
O     5.648365     0.814386     1.028453
H     6.164013     0.612341     1.836371
H    -6.136434     3.279042     7.484811
O    -6.005638     2.750214     8.306039
H    -6.610413     1.992225     8.217379
H     2.261347    -8.086175    -0.875462
O     2.933482    -8.072182    -1.576360
H     2.701625    -8.781993    -2.191861
H    -2.780590    -3.922346    -6.171868
O    -2.027612    -4.492842    -5.948534
H    -1.744108    -4.207737    -5.051576
H    -5.567906     3.749958     5.397828
O    -6.205057     4.146140     6.027122
H    -6.049462     5.091395     6.002601
H    -1.046952    -7.099687    -3.167256
O    -0.568116    -6.434695    -2.638678
H     0.337030    -6.367080    -3.025470
H     4.510441     1.962764     5.136824
O     3.568818     2.208386     5.026561
H     3.192377     2.216617     5.911832
H     4.196689     4.598595     6.328863
O     4.270676     5.332214     5.714070
H     3.698814     5.095403     4.945687
H     2.831008     3.575109     3.953279
O     2.649846     4.516052     3.795050
H     2.529108     4.621423     2.829111
H     9.409910     0.170257    -1.105235
O     8.607702     0.333479    -0.605589
H     8.432146    -0.487451    -0.115822
H    -1.726516     4.761033     9.854911
O    -2.349095     4.681640     10.605395
H    -2.581115     5.603111     10.837214
H     7.985477    -3.052368     0.284611
O     8.411489    -2.208681     0.541609
H     8.352775    -2.209232     1.504396
H     5.433018     3.615438     3.537605
O     6.094121     3.874429     4.201567
H     5.689149     4.592708     4.708743
H    -4.023539     4.609723     9.849511
O    -4.762432     4.922328     9.280538
H    -5.388496     4.181540     9.215804
H    -7.026034    -3.436341    -3.427844
O    -7.652246    -4.042929    -3.875317
H    -7.138027    -4.483316    -4.583590
H    -2.022637     9.719245     8.810033
O    -2.211694     8.790343     8.646333
H    -1.337712     8.381442     8.466793
H     2.590437     1.500351    -4.085893
O     3.471705     1.848440    -3.850855
H     3.795321     1.327407    -3.085812
H    -6.903087    -0.239456     7.293811
O    -7.407284     0.539775     7.579976
H    -8.035641     0.727717     6.881795
H    -2.766905    -9.864437    -0.837567
O    -2.700891    -8.922153    -0.992464
H    -3.603640    -8.553359    -0.743638
H    -10.066267     3.138821    -4.782209
O    -10.184883     2.220220    -4.505878
H    -10.394100     2.299632    -3.554309
H    -2.025741    -3.049099     4.640068
O    -2.902391    -3.485008     4.713157
H    -2.904094    -4.099224     3.953847
H    -0.171404    -8.003327     2.471019
O     0.658894    -7.797903     2.913946
H     1.371901    -8.094054     2.320836
H     6.762884    -2.447163     6.362484
O     7.205499    -3.155654     5.890550
H     6.572644    -3.888065     5.853217
H    -5.210074    -2.026369     6.998300
O    -5.886028    -1.521282     6.521142
H    -5.879128    -1.894718     5.610330
H     0.823027     3.061575    -7.074468
O     1.738831     2.727209    -7.138444
H     1.717723     1.983272    -7.768383
H    -3.284071     8.697216     6.832872
O    -3.702463     8.768497     5.962131
H    -3.876118     7.849617     5.693626
H    -2.011967     10.331120    -2.636801
O    -2.915398     10.517990    -2.929841
H    -2.847261     11.154985    -3.640392
H     9.444387    -4.130782     3.985605
O     9.165306    -4.811227     4.605921
H     8.743578    -4.341187     5.336099
H    -0.777313    -5.968348    -5.840087
O    -0.074125    -6.539613    -5.514194
H     0.761924    -6.080744    -5.735262
H     1.889415     8.256590     0.726046
O     1.580458     8.584739    -0.146983
H     2.390965     8.622000    -0.683967
H     3.487741     2.944808    -6.641144
O     4.316995     2.649333    -6.239028
H     4.076903     2.371307    -5.330119
H     3.778029     7.108418    -1.187198
O     3.986092     8.044598    -1.396373
H     4.348987     7.992189    -2.292557
H     4.363602     0.010777    -7.912977
O     4.747120     0.150900    -7.045351
H     4.571139     1.082272    -6.795727
H     6.058637     1.902532    -0.476975
O     6.619252     2.098074    -1.241565
H     7.443144     1.613644    -1.056555
H     6.659876    -8.458167    -1.671047
O     7.291303    -8.245987    -2.411036
H     7.652173    -9.080155    -2.706442
H    -5.340116    -5.742617    -5.373985
O    -5.956538    -5.066092    -5.680411
H    -5.403732    -4.299121    -5.917192
H     0.800064     7.218942     7.580860
O    -0.126737     7.199628     7.880836
H    -0.607650     7.114893     7.005483
H    -8.914854    -2.779969    -4.027052
O    -9.430190    -1.969951    -3.851248
H    -9.146163    -1.303169    -4.480280
H    -2.427298    -5.973126    -2.131163
O    -3.305853    -5.681083    -2.392166
H    -3.500960    -6.050328    -3.278540
H    -3.025867    -5.863928    -5.392543
O    -3.625011    -6.473537    -4.919199
H    -3.145643    -7.296925    -4.760667
H    -1.400210     3.764358    -6.923507
O    -0.861308     3.005007    -6.660090
H    -1.104995     2.223823    -7.212781
H    -0.236131     0.457228    -8.183102
O    -1.128987     0.695017    -7.891853
H    -1.301115     0.167338    -7.095973
H    -10.401613     4.105683    -2.610013
O    -10.468169     3.324144    -2.045723
H    -9.635648     3.291728    -1.542547
H     4.632815     4.043843     1.740330
O     4.421890     3.122997     2.017373
H     5.132030     2.544394     1.726942
H     6.485262     1.387188    -4.227612
O     6.184110     0.760763    -3.534864
H     6.223404     1.251354    -2.688637
H     9.639953    -2.268852    -0.979553
O     9.911195    -2.050149    -1.879929
H     9.109129    -1.705952    -2.315936
H     9.956745    -3.352866    -3.157047
O     9.681955    -4.000004    -3.833554
H     9.285708    -3.486792    -4.548418
H    -7.722962    -8.539643    -1.631547
O    -6.983739    -7.947361    -1.761490
H    -7.357770    -7.033016    -1.743925
H     4.182906     6.077716    -3.787085
O     4.847247     6.775792    -3.701390
H     5.682734     6.317621    -3.573885
H     0.049804    -8.148449    -5.232774
O     0.070331    -9.132127    -5.106506
H     0.213112    -9.491750    -5.982077
H    -2.365296    -8.655309    -2.719016
O    -2.136562    -8.387002    -3.628544
H    -1.495466    -9.006357    -3.995616
H     2.136698    -10.812734    -3.542489
O     2.094520    -9.858170    -3.512378
H     1.306596    -9.581315    -4.031610
H     6.841067     3.320473    -4.574643
O     6.891277     2.645649    -5.279275
H     6.094779     2.785047    -5.813920
H    -3.504616    -3.755665     7.754827
O    -3.616894    -2.964413     7.229450
H    -3.374252    -3.200824     6.308149
H    -0.675569    -3.328811    -6.709539
O    -0.042360    -2.599921    -6.717177
H    -0.518636    -1.824392    -6.368202
H     0.729143     0.391045     8.785870
O     0.724321    -0.308015     8.128867
H    -0.199217    -0.595900     8.052403
H    -5.809855     7.409927    -4.140780
O    -6.318891     6.796121    -4.701761
H    -6.605179     6.063283    -4.112629
H    -4.240362     9.133250    -3.153707
O    -4.778395     8.338606    -3.048080
H    -4.366838     7.853291    -2.314808
H    -9.696682     5.857509    -4.516575
O    -10.232020     5.054046    -4.353633
H    -11.114057     5.260135    -4.665102
H     2.859720     6.465479     6.182854
O     1.901065     6.572465     6.283669
H     1.548263     5.663902     6.188662
H     4.862916     8.520062     0.126789
O     5.184987     8.513881     1.046178
H     5.591872     7.648308     1.168597
H     4.104230    -7.425814    -4.383766
O     3.341061    -7.704099    -4.922294
H     3.059997    -8.546190    -4.549274
H     0.464672     8.628713     4.307252
O     1.138215     7.982403     4.071347
H     1.374412     7.485153     4.881304
H     5.253840     4.179686    -3.141886
O     6.215488     4.146198    -3.095508
H     6.427369     3.559309    -2.352787
H    -2.508755    -1.581232     7.611309
O    -1.995813    -0.787143     7.822918
H    -2.612516    -0.168299     8.222745
H    -9.000355     7.991953    -4.010024
O    -8.944885     7.410973    -4.770176
H    -7.989533     7.244013    -4.913338
H     3.522893    -9.007563     1.044722
O     2.850824    -8.374052     1.301527
H     3.330968    -7.572579     1.582907
H     3.655467     8.138763     1.876044
O     2.862844     7.578689     1.993312
H     2.425213     7.813257     2.823996
N    -3.453078     7.223690     10.712784
H    -4.242829     6.893195     10.263864
H    -3.035660     7.814959     10.059520
