603

H     0.194846     3.038914    -0.687387
O     0.717794     2.366485    -1.170328
H     1.657406     2.501074    -0.903792
H    -0.072973    -1.287863     3.146425
O     0.318595    -0.587073     2.602532
H    -0.161388     0.225418     2.833854
H    -2.404170     2.422085    -0.543839
O    -2.194050     1.954838     0.282085
H    -2.205473     1.006381     0.058405
H    -4.663009     0.560326     2.180151
O    -4.979252    -0.373173     2.194533
H    -4.474874    -0.850979     1.527817
H     0.064673    -0.290074     0.945780
O    -0.139738    -0.056643     0.020019
H     0.203067     0.838022    -0.110005
H    -0.148692    -3.556878     3.775421
O    -0.428094    -2.727027     4.196187
H     0.219193    -2.555408     4.896612
H    -4.890644     2.541939     1.326881
O    -4.249182     2.135539     1.941473
H    -3.407740     2.116472     1.426171
H    -3.256414     3.906641    -2.220759
O    -2.515192     3.315271    -1.988747
H    -2.153562     3.028572    -2.848798
H    -0.122520    -3.788081     0.501108
O     0.216904    -2.970477     0.919035
H    -0.570686    -2.483788     1.229539
H    -2.376158    -1.522264     2.467150
O    -2.187875    -1.989274     1.626935
H    -2.446322    -1.403187     0.896484
H     2.072197    -1.424656    -1.128396
O     2.303975    -1.677264    -0.210473
H     1.515324    -2.105521     0.173368
H    -1.393016     1.840209     1.904228
O    -1.483815     1.444770     2.781398
H    -1.468322     2.157950     3.445123
H     0.207863    -2.688246    -1.573733
O    -0.550238    -2.079611    -1.626331
H    -0.370075    -1.350132    -0.995904
H    -3.436311    -2.913002    -0.390579
O    -2.719414    -3.405647    -0.811073
H    -2.009781    -2.774853    -1.031721
H     2.773440     0.149887     2.923654
O     2.873391    -0.030325     3.886054
H     2.964029     0.863141     4.288685
H    -3.551855     6.387304    -0.544135
O    -3.323124     7.055288    -1.244133
H    -3.174174     7.897860    -0.772160
H     3.898867     0.604642     1.173585
O     2.948889     0.421893     1.293446
H     2.711388    -0.329674     0.712713
H    -5.786637     0.850610    -1.606188
O    -4.876645     1.179342    -1.480963
H    -4.988132     2.007443    -0.969535
H    -1.217563     5.414123     2.200994
O    -1.841307     4.666936     2.083471
H    -1.919091     4.247267     2.945679
H     3.491429     2.773357     0.417303
O     3.235835     2.736897    -0.519212
H     3.572822     1.901909    -0.883679
H     1.491216    -4.681455    -2.254159
O     1.555784    -3.904297    -1.680987
H     2.348970    -3.441754    -2.033921
H    -0.926891    -0.070114    -2.550920
O    -0.292959     0.579866    -2.879535
H    -0.030321     1.168477    -2.148171
H     1.701830    -4.667869    -0.182837
O     1.809720    -5.304091     0.560633
H     1.347010    -6.115947     0.265631
H    -1.228123    -3.252926    -2.882099
O    -1.056537    -3.937928    -3.541793
H    -0.927856    -4.783617    -3.071459
H    -2.781666     3.326876     4.697213
O    -1.800339     3.327727     4.662357
H    -1.505972     2.925424     5.497870
H     0.958525     5.055355     4.063705
O     0.012411     5.288300     4.113530
H    -0.459365     4.485600     4.374076
H    -1.728346    -4.636710    -0.371369
O    -0.962605    -5.176789    -0.086605
H    -1.309026    -5.863172     0.492806
H    -3.932588     5.841417    -2.609657
O    -4.278352     5.005111    -2.937613
H    -4.129537     4.968702    -3.907042
H    -2.427252    -3.673959     1.935881
O    -2.444405    -4.577506     2.313420
H    -1.504117    -4.814574     2.452508
H    -4.698518    -2.972278    -2.896624
O    -3.846925    -3.204989    -3.304299
H    -3.513601    -3.996949    -2.838003
H     0.340434     1.397483     4.606693
O     0.844436     2.158887     4.272497
H     0.893419     2.817652     4.979340
H    -4.654230    -5.160384    -1.566894
O    -5.355990    -4.807444    -0.992645
H    -5.141069    -5.160563    -0.108444
H     2.325744    -6.466997    -4.042655
O     1.989190    -6.138586    -3.188864
H     2.425703    -6.710756    -2.525685
H     0.462529    -3.366599    -4.009793
O     1.264869    -3.000942    -4.434405
H     0.944339    -2.628298    -5.282052
H     1.966391    -1.731897     2.974098
O     2.122150    -2.663102     2.758707
H     1.436362    -2.878093     2.091923
H    -3.020427    -1.799586    -3.210687
O    -2.600058    -0.912622    -3.144573
H    -3.254514    -0.267872    -3.467213
H    -3.197969     4.987750     1.073883
O    -3.981085     5.360341     0.620949
H    -4.396427     5.917779     1.327560
H     0.875028     2.271492     2.583981
O     0.974744     2.270608     1.612760
H     1.699737     1.646009     1.443867
H     0.121890     5.591179    -0.812078
O     0.637620     6.271408    -1.317591
H     0.819555     7.032158    -0.712369
H     0.334475     7.053209     2.575579
O    -0.024303     6.678573     1.754081
H     0.633869     6.000617     1.496999
H    -2.479496     0.232189     3.337063
O    -2.700086    -0.580891     3.843905
H    -1.938208    -0.619582     4.463925
H    -0.890330     0.574796     6.019722
O    -0.616357     0.056120     5.244922
H     0.098005    -0.546990     5.530733
H     0.714208    -4.975198     1.977814
O     0.173265    -5.084785     2.783260
H     0.319500    -6.004983     3.055878
H    -2.112420    -8.073892     0.452391
O    -1.789825    -7.585286     1.237105
H    -2.575978    -7.273798     1.693216
H    -0.560538     6.896401    -2.281329
O    -1.270918     7.331491    -2.811875
H    -2.067163     7.199061    -2.244677
H    -1.119599     4.329228     0.560291
O    -0.751695     4.391394    -0.337960
H    -1.457449     4.135256    -0.967754
H    -4.411161     2.761997     3.502922
O    -4.408361     2.934044     4.467325
H    -4.490314     2.051295     4.877592
H     2.029757    -3.560099     4.238590
O     1.967559    -4.031228     5.092643
H     2.475293    -3.493473     5.721756
H     4.688873    -3.172930     0.829390
O     4.526697    -3.099383    -0.136734
H     3.667782    -2.621842    -0.219987
H    -2.726176    -0.736028    -1.353809
O    -3.053529    -0.466037    -0.479084
H    -3.854442     0.058682    -0.686259
H    -1.623399    -0.750297    -4.634834
O    -1.119911    -0.537183    -5.441050
H    -0.410929     0.063914    -5.160053
H     1.789093    -1.699786    -3.384486
O     1.880609    -0.954328    -2.760101
H     1.104486    -0.375302    -2.892923
H     3.666244    -3.099940     2.542352
O     4.625523    -3.327909     2.469301
H     4.681201    -4.288011     2.595885
H     3.433241    -6.098739     3.118262
O     3.787570    -5.898627     2.217487
H     3.049145    -5.554183     1.674928
H    -3.351209     1.618506    -4.183267
O    -4.198123     1.150337    -3.991798
H    -4.413041     1.295033    -3.034795
H    -5.092302     4.157580     0.061689
O    -5.529570     3.291099    -0.039274
H    -6.460315     3.408025    -0.321274
H     6.729643    -1.160299    -1.377757
O     5.960649    -1.011787    -0.821164
H     5.541259    -1.879384    -0.625323
H     4.590573    -3.150884    -2.479819
O     3.721619    -2.981972    -2.894241
H     3.724943    -3.600352    -3.650540
H     4.441021    -2.267630     5.611595
O     4.099964    -2.732407     6.406091
H     4.435439    -3.637294     6.324585
H    -0.757019     6.358288     5.062589
O    -1.353430     6.934487     5.600543
H    -1.368375     7.810970     5.158493
H     4.692164    -0.115280    -1.479530
O     3.925718     0.427564    -1.741521
H     3.233481    -0.171944    -2.072807
H    -0.875342     4.457429    -4.058150
O    -1.649224     5.025569    -4.227241
H    -1.454441     5.889335    -3.819657
H     0.669219     3.120551    -2.695957
O     0.635096     3.483152    -3.605639
H     0.706847     2.688987    -4.153576
H    -5.379273    -5.181012     1.799616
O    -4.682499    -5.775572     1.444393
H    -3.841978    -5.358359     1.713178
H     7.874039    -1.669906    -4.049020
O     7.617420    -1.356360    -3.149250
H     7.129166    -0.512694    -3.305844
H     3.695667    -5.057976    -5.296665
O     4.458959    -4.683987    -4.817343
H     4.844261    -5.394020    -4.271046
H    -3.781352     0.036141     4.932844
O    -4.381682     0.500371     5.566038
H    -5.040882    -0.158234     5.859087
H     3.466053    -5.923500    -0.525238
O     4.338571    -5.676311    -0.843548
H     4.413835    -4.713494    -0.701839
H     4.990715    -0.316980    -4.173375
O     4.458452    -1.031770    -4.561994
H     4.132149    -1.612581    -3.842553
H    -1.176136     1.588675    -3.942950
O    -1.833800     2.203052    -4.326739
H    -1.474977     2.541066    -5.169782
H     4.884695    -6.303835    -2.321497
O     5.216355    -6.630168    -3.187127
H     6.035435    -7.109415    -3.001070
H     8.737938    -5.070636    -2.931670
O     8.048199    -5.488758    -2.371635
H     8.083447    -6.446066    -2.473162
H     2.341060     4.726511     0.450908
O     1.746279     4.720770     1.209913
H     1.392819     3.798046     1.293310
H    -4.411001    -2.618316     4.233111
O    -5.305596    -2.279471     4.032062
H    -5.170173    -1.499305     3.454898
H    -5.844965    -3.184171     1.321508
O    -6.306497    -3.740685     1.991298
H    -6.117057    -3.304154     2.841015
H     1.688476     3.494543     6.849147
O     1.064609     4.010194     6.316270
H     0.281759     4.161253     6.888615
H     5.003839    -2.145009     3.605151
O     5.024375    -1.426039     4.268702
H     4.212038    -0.870668     4.112008
H     2.398536    -5.553292     4.834486
O     2.779245    -6.437083     4.575468
H     2.034662    -7.019433     4.402185
H     2.248922    -4.506048    -6.795028
O     2.081172    -4.993655    -5.978629
H     1.816379    -4.301493    -5.323877
H     6.439482    -4.081469    -0.514690
O     7.193286    -4.483962    -0.051756
H     7.700205    -4.906583    -0.772869
H    -1.723810     4.512708     7.691552
O    -0.824387     4.612762     8.075290
H    -0.644912     5.572023     8.098882
H    -5.134512     5.699162    -5.605128
O    -4.524442     4.937867    -5.621065
H    -3.766311     5.152713    -6.186672
H     3.268986    -2.518229    -8.444995
O     3.183916    -3.052050    -7.644168
H     4.060559    -3.024186    -7.215512
H    -0.698493     8.860888    -2.211661
O    -0.548702     9.730704    -1.773223
H     0.148697     9.566694    -1.120576
H     2.070291    -0.889019     5.202539
O     1.498548    -1.414072     5.791809
H     1.594277    -1.067974     6.688449
H     5.196650    -2.009091    -5.704259
O     5.542542    -2.775696    -6.226411
H     5.270343    -3.565254    -5.707590
H     5.702680    -5.188264     4.677335
O     5.181654    -5.103010     5.504824
H     4.460606    -5.735742     5.420748
H    -3.969971     1.166489     7.004183
O    -3.777155     1.644168     7.846929
H    -4.653450     2.028547     8.108719
H    -1.862271     9.629221    -0.762196
O    -2.721307     9.503562    -0.287056
H    -3.334346     10.129141    -0.676769
H    -5.961242     4.695353    -2.943072
O    -6.869899     4.576112    -3.286534
H    -6.779492     3.872472    -3.962702
H     0.096380    -7.049791    -1.142376
O     0.561892    -7.484663    -0.394795
H    -0.116295    -7.679059     0.255204
H    -7.648107     3.797021    -1.975453
O    -7.907649     3.211232    -1.233917
H    -7.764455     2.301934    -1.572272
H     3.979261    -0.864331     6.975220
O     3.987339     0.099878     6.965549
H     4.798621     0.389583     6.531885
H     2.230526     5.686624    -1.185255
O     3.180489     5.474050    -1.054172
H     3.405832     4.821344    -1.751804
H     6.553367    -5.906704     0.662688
O     6.186488    -6.642730     1.198181
H     5.281802    -6.366410     1.425357
H    -3.867314     4.750695     7.773801
O    -3.300994     4.288237     7.114274
H    -3.492822     3.344561     7.226092
H     5.766553    -7.923966     0.132357
O     5.478433    -8.612549    -0.503479
H     4.648577    -8.288193    -0.897319
H    -0.553437     2.066200     7.684860
O    -1.187690     2.001850     6.950685
H    -2.055308     1.858395     7.348486
H    -6.385566    -0.110751     1.064562
O    -6.707295    -0.194258     0.152214
H    -7.625284    -0.467478     0.171625
H    -5.373521    -3.053799    -0.584192
O    -5.122310    -2.350628     0.040958
H    -5.692558    -1.578395    -0.147965
H     4.315222     5.586336     0.316321
O     4.653311     5.707471     1.217937
H     3.951038     6.205626     1.669839
H    -9.049594    -1.740314    -2.245627
O    -8.501435    -1.536878    -1.460300
H    -8.626443    -2.273349    -0.821925
H    -5.539153     3.474829    -5.532006
O    -6.055566     2.765805    -5.113746
H    -5.387435     2.180474    -4.701377
H     3.170535    -0.876531    -5.665174
O     2.314996    -0.999951    -6.130807
H     2.400760    -1.849694    -6.602326
H     8.102691    -1.332164    -6.045334
O     8.113117    -2.196103    -5.588503
H     7.256652    -2.596867    -5.836870
H     7.606174     1.006877    -6.327113
O     7.418498     0.158136    -6.740620
H     6.437088     0.107284    -6.774836
H    -7.859884    -3.682996     0.938175
O    -8.539632    -3.577760     0.254845
H    -8.441108    -4.337633    -0.346293
H    -2.418683     8.752858     1.278557
O    -2.266077     8.165109     2.031646
H    -1.496204     7.611770     1.808292
H    -4.450643     6.451547     3.489635
O    -4.622145     6.876578     2.632785
H    -3.859717     7.463211     2.491808
H     3.435411     3.454048    -3.596333
O     3.762294     4.359436    -3.396213
H     3.184068     4.998328    -3.858486
H    -6.122905    -1.599479    -3.438554
O    -6.204821    -2.177676    -2.653633
H    -6.988187    -1.870267    -2.144464
H     6.468516     1.077430     4.722848
O     6.074979     1.617425     5.425305
H     6.262659     2.535515     5.132605
H     1.337473     1.726775    -5.834661
O     1.138094     1.125292    -5.087374
H     1.514999     0.267411    -5.353845
H    -2.482608     2.990377     10.477040
O    -2.269563     2.082756     10.204587
H    -2.868009     1.881282     9.473298
H     7.627570    -0.470835     3.066701
O     6.877617     0.104281     3.237780
H     6.186237    -0.496881     3.617375
H    -5.656480    -8.044235    -0.689886
O    -4.920954    -8.111631    -0.044150
H    -4.924470    -7.293460     0.476436
H    -5.187744    -0.112912    -4.714685
O    -5.804961    -0.825528    -4.951988
H    -6.643558    -0.384978    -5.150270
H     1.874111    -0.190112    -7.524317
O     1.670784     0.278872    -8.369361
H     2.248242    -0.126548    -9.021615
H     4.856291    -1.383677    -9.315356
O     3.930506    -1.156768    -9.597167
H     3.909304    -1.276650    -10.545895
H     7.567343    -2.542746     4.186183
O     7.713211    -2.579535     3.226619
H     7.220237    -3.370971     2.955791
H     6.725560    -5.868839     2.675485
O     6.787689    -5.193239     3.376306
H     7.664426    -5.276952     3.792473
H    -1.830211     8.966811     3.481759
O    -1.579558     9.273773     4.378341
H    -2.427045     9.405113     4.836816
H    -7.403274     1.570853    -5.248945
O    -7.977134     0.826568    -5.002175
H    -8.879204     1.225015    -4.925739
H     6.910417    -1.069715    -8.418866
O     6.329921    -1.792427    -8.681339
H     6.102898    -2.240934    -7.848368
H    -1.688739     6.246205    -7.032007
O    -2.098680     5.429572    -6.750231
H    -1.823812     5.287804    -5.796102
H     0.005265     3.339034     9.012736
O     0.203817     2.419988     9.268979
H    -0.593624     2.155380     9.776592
H     6.750334    -2.759315    -2.717835
O     6.221827    -3.504103    -2.374657
H     6.690438    -4.314518    -2.621912
H    -4.085977    -3.066615    -4.940684
O    -4.242659    -2.955943    -5.905325
H    -4.789436    -2.162647    -5.961889
H     1.984964     2.212883     8.453252
O     2.647400     2.325603     7.761873
H     3.070779     1.455770     7.646970
H    -6.909162    -5.193510    -1.385812
O    -7.824940    -5.464073    -1.629723
H    -7.959930    -5.062897    -2.513120
H    -3.829853     5.276513     5.689223
O    -3.798079     6.044508     5.097622
H    -2.864279     6.339316     5.190655
H    -7.892551     0.094425    -1.961823
O    -7.404873     0.818699    -2.376712
H    -7.633503     0.805544    -3.329846
H     5.832279     0.155095     0.396691
O     5.610318     0.875122     1.019496
H     6.123312     0.680063     1.830452
H    -6.213089     3.331399     7.394519
O    -6.083491     2.814729     8.223791
H    -6.682771     2.052363     8.137319
H     2.279701    -8.055932    -0.842399
O     2.956329    -8.044072    -1.539002
H     2.731102    -8.758784    -2.151210
H    -2.754161    -3.955518    -6.194542
O    -2.000659    -4.521796    -5.962517
H    -1.722424    -4.227689    -5.066745
H    -5.644775     3.779493     5.306170
O    -6.293323     4.176593     5.923641
H    -6.130805     5.120768     5.908648
H    -1.020540    -7.102708    -3.159209
O    -0.548114    -6.432301    -2.631933
H     0.358660    -6.361837    -3.014443
H     4.445086     2.044451     5.113457
O     3.503382     2.284795     4.994964
H     3.120249     2.298936     5.877374
H     4.110107     4.686512     6.283075
O     4.187193     5.416675     5.664497
H     3.619738     5.172801     4.894695
H     2.762193     3.642416     3.909935
O     2.583606     4.582041     3.741145
H     2.459824     4.676273     2.774928
H     9.386532     0.233705    -1.091327
O     8.583710     0.397541    -0.592869
H     8.407208    -0.422283    -0.101715
H    -2.096044     5.350269     10.640844
O    -2.817157     4.721441     10.873940
H    -3.034228     4.899335     11.789297
H     7.971372    -2.985269     0.313581
O     8.393158    -2.138583     0.567467
H     8.327697    -2.132009     1.529730
H     5.368317     3.689686     3.507770
O     6.025169     3.959421     4.171876
H     5.611314     4.676778     4.673273
H    -4.205247     5.048860     9.778283
O    -4.839409     5.198264     9.056875
H    -5.450516     4.448989     9.056266
H    -7.017101    -3.472444    -3.477236
O    -7.637758    -4.085435    -3.923913
H    -7.117057    -4.527989    -4.626193
H     0.031920     6.160464     10.756996
O    -0.833072     6.491265     10.510347
H    -0.718644     6.920646     9.643341
H     2.550965     1.504725    -4.119969
O     3.421263     1.876495    -3.889410
H     3.763793     1.369596    -3.125937
H    -6.966762    -0.198114     7.224055
O    -7.475686     0.580385     7.503954
H    -8.100291     0.761744     6.800582
H    -2.739180    -9.860357    -0.818905
O    -2.677138    -8.918876    -0.980080
H    -3.582977    -8.552853    -0.738785
H    -10.083487     3.077285    -4.893641
O    -10.199579     2.160072    -4.611793
H    -10.413835     2.244698    -3.661824
H    -2.063058    -3.003266     4.614987
O    -2.937671    -3.443768     4.686625
H    -2.931958    -4.062515     3.930974
H    -0.171547    -7.962416     2.489943
O     0.655160    -7.751000     2.936796
H     1.372992    -8.046568     2.349239
H     6.712047    -2.344288     6.379945
O     7.161953    -3.054399     5.917393
H     6.532524    -3.789771     5.880161
H    -5.265179    -1.981375     6.947946
O    -5.942647    -1.484383     6.464498
H    -5.927315    -1.862554     5.555684
H     0.821881     3.043978    -7.122243
O     1.738410     2.711920    -7.185620
H     1.719152     1.962161    -7.808239
H    -3.958631     8.780513     6.660206
O    -3.955408     8.776541     5.702849
H    -4.082083     7.848608     5.437041
H    -2.074568     10.324404    -2.761490
O    -2.979394     10.508270    -3.050222
H    -2.916576     11.135586    -3.769900
H     9.415272    -4.030493     4.029639
O     9.137880    -4.707779     4.654195
H     8.708449    -4.234670     5.377876
H    -0.742252    -5.988765    -5.837237
O    -0.037658    -6.554417    -5.504609
H     0.797007    -6.091913    -5.723918
H     1.901787     8.230706     0.647412
O     1.570655     8.547969    -0.227327
H     2.379118     8.608272    -0.766867
H     3.479898     2.935604    -6.676884
O     4.309523     2.656772    -6.263574
H     4.062384     2.387358    -5.351811
H     3.816090     7.024682    -1.363111
O     4.025456     7.957228    -1.615588
H     4.811701     7.857922    -2.188307
H     4.378063     0.007716    -7.923303
O     4.758178     0.154291    -7.055315
H     4.575427     1.085700    -6.809413
H     6.021547     1.957364    -0.498326
O     6.593174     2.149498    -1.255010
H     7.413472     1.663390    -1.059290
H     6.684837    -8.410677    -1.611262
O     7.319693    -8.200810    -2.348989
H     7.685735    -9.035365    -2.636776
H    -5.308702    -5.783140    -5.397881
O    -5.927264    -5.112382    -5.712650
H    -5.377146    -4.343821    -5.951043
H     0.682709     7.202566     7.583915
O    -0.218168     7.230434     7.944932
H    -0.775332     7.242617     7.128738
H    -8.905484    -2.830314    -4.091099
O    -9.426674    -2.022065    -3.924251
H    -9.141883    -1.357924    -4.555732
H    -2.411985    -5.975867    -2.138219
O    -3.291477    -5.691965    -2.405052
H    -3.479273    -6.067074    -3.290511
H    -2.994227    -5.892165    -5.402753
O    -3.592777    -6.502374    -4.929077
H    -3.109423    -7.321740    -4.762210
H    -1.410454     3.733077    -6.991922
O    -0.868159     2.978972    -6.722603
H    -1.105988     2.192521    -7.269593
H    -0.222327     0.423443    -8.221985
O    -1.119173     0.656312    -7.939236
H    -1.290517     0.136406    -7.137928
H    -10.435620     4.057226    -2.730616
O    -10.501787     3.279805    -2.160650
H    -9.671253     3.254260    -1.653675
H     4.581620     4.101857     1.705785
O     4.370533     3.183506     1.987170
H     5.081849     2.603654     1.701629
H     6.471559     1.415774    -4.238676
O     6.172145     0.792256    -3.541941
H     6.198448     1.292857    -2.701068
H     9.628558    -2.201597    -0.947612
O     9.903673    -1.988291    -1.848103
H     9.102253    -1.650678    -2.290777
H     9.962627    -3.298932    -3.115451
O     9.695747    -3.952233    -3.789290
H     9.299811    -3.445913    -4.509296
H    -7.698006    -8.566407    -1.649077
O    -6.960825    -7.971682    -1.779351
H    -7.339106    -7.058921    -1.770351
H     6.081200     7.196056    -4.206144
O     6.146114     7.106979    -3.251160
H     6.372236     6.166294    -3.111237
H     0.092960    -8.159895    -5.210844
O     0.117857    -9.142734    -5.077819
H     0.267635    -9.507255    -5.950186
H    -2.333097    -8.662018    -2.706831
O    -2.101607    -8.399644    -3.617339
H    -1.454310    -9.017401    -3.976103
H     2.183259    -10.802073    -3.490782
O     2.136461    -9.847561    -3.467326
H     1.350343    -9.577798    -3.993054
H     6.839762     3.339640    -4.585732
O     6.881308     2.664303    -5.295063
H     6.083400     2.804333    -5.826446
H    -3.554212    -3.697668     7.725107
O    -3.669815    -2.910508     7.194374
H    -3.419883    -3.150569     6.275863
H    -0.650026    -3.353816    -6.725260
O    -0.019904    -2.622491    -6.734757
H    -0.500888    -1.846347    -6.392739
H     0.649009     0.491440     8.745533
O     0.656532    -0.223662     8.105369
H    -0.265299    -0.514369     8.019604
H    -5.854345     7.374080    -4.258993
O    -6.357371     6.754253    -4.818367
H    -6.641821     6.022815    -4.226373
H    -4.297434     9.112640    -3.273223
O    -4.832835     8.316323    -3.168177
H    -4.430979     7.838276    -2.424758
H    -9.729265     5.799522    -4.645480
O    -10.261625     4.994743    -4.479469
H    -11.142670     5.193717    -4.798259
H     2.766676     6.544129     6.121022
O     1.806384     6.641337     6.217370
H     1.463450     5.726987     6.119859
H     4.791953     8.557757     0.019082
O     5.092599     8.575192     0.943773
H     5.507363     7.717476     1.096962
H     4.138611    -7.410355    -4.345108
O     3.380346    -7.697272    -4.886044
H     3.101359    -8.537638    -4.507697
H     0.371481     8.682956     4.215165
O     1.051138     8.040551     3.986165
H     1.278792     7.547752     4.801058
H     5.437068     4.233269    -3.257491
O     6.416804     4.240039    -3.144571
H     6.580406     3.619206    -2.413187
H    -2.569465    -1.518962     7.573056
O    -2.060087    -0.724596     7.791398
H    -2.686386    -0.098928     8.165671
H    -9.047254     7.940511    -4.149462
O    -8.984653     7.355403    -4.905868
H    -8.027664     7.191474    -5.042103
H     3.536137    -8.957345     1.090290
O     2.859069    -8.326644     1.340795
H     3.333059    -7.520004     1.618056
H     3.568263     8.199990     1.809937
O     2.780118     7.634085     1.918226
H     2.328288     7.869058     2.742399
N     2.204432     6.631889    -3.986933
H     2.718375     7.197915    -3.391020
H     1.482737     6.318477    -3.427217
