36
Coordinates from ORCA-job grain_mol_opt.QMRegion
  H   -0.79544962893851      6.29709784134361      4.95074259188517
  O   -1.40661085146479      6.89387010949556      5.45781361250543
  H   -1.33016528770527      7.75698493932649      4.98787342190328
  H   -1.68154003820173      4.38977078815018      7.60932515180231
  O   -0.82214544051246      4.54712705100547      8.06572118887073
  H   -0.60127278731185      5.49263223107122      7.97422413992735
  H   -3.82249394248466      4.61125571382639      7.58680436767546
  O   -3.23799841888427      4.09726183274426      6.99362203352415
  H   -3.45181176903182      3.17567742292688      7.23719990870672
  H   -1.69985741631256      9.00106706617788      3.38854871179030
  O   -1.34631915266164      9.34573328713248      4.23815645182058
  H   -2.14304828299735      9.47607234905181      4.79389769677812
  H   -3.88655127230023      5.10041999794330      5.29639300195731
  O   -3.96960362378077      6.04386708259318      5.10361964308863
  H   -3.04497122155837      6.36761872969377      5.21503600488456
  H   -5.69557374134417      3.68429669506096      5.32861658289684
  O   -6.39607866403409      4.07010897791694      5.89647204573360
  H   -6.16463342250411      5.00388726434430      5.94372635922191
  H   -2.06392273204163      5.32872743032258     10.58405595636047
  O   -2.77220154120137      4.69273260943760     10.82160563076409
  H   -2.90809195230433      4.79057347794418     11.76683507358667
  H   -4.22601971852784      4.96991687369139      9.73427770126553
  O   -4.83778313220051      5.17126057911106      8.99861835999817
  H   -5.45235711411050      4.41964182371323      8.95670484333071
  H   -0.72348785173960      7.45177199072738     10.84809730018847
  O   -1.15131028731338      6.87375571668123     10.21228093007600
  H   -0.66662680978428      7.01678769030875      9.36010098387927
  H   -3.44803456025672      8.70056188736011      6.65696172678782
  O   -3.62741339933272      9.16925021030880      5.82030593796220
  H   -4.17840804502624      8.54537414967830      5.33349871594617
  H   0.72803368381947      7.09778410547919      7.38723163931557
  O   -0.16660828981729      7.17038764356122      7.77611142098972
  H   -0.74402692516060      7.18113699680525      6.96260170828908
  O   -3.33525200800335      7.63196281998540      8.22231098279920
  H   -2.75211468176086      7.59832771584352      8.99254631603048
  H   -4.01947171105764      6.96963078160991      8.39028997823186
