30

H    -2.379197    -3.616254     1.917792
O    -2.400079    -4.559448     2.168680
H    -1.469458    -4.780733     2.380493
H    -2.131220    -8.129414     0.383478
O    -1.781231    -7.688337     1.190164
H    -2.553959    -7.381247     1.669901
H    -5.361431    -5.053126     1.753631
O    -4.695298    -5.756696     1.509353
H    -3.831041    -5.285693     1.573192
H    -4.436502    -2.550276     4.148258
O    -5.348889    -2.234579     3.967413
H    -5.219116    -1.440096     3.401021
H    -5.865427    -3.158210     1.230776
O    -6.330000    -3.725997     1.899591
H    -6.135685    -3.255127     2.736829
H    -5.689619    -8.106422    -0.775437
O    -5.013033    -8.181971    -0.063265
H    -4.984334    -7.309331     0.363062
H    -2.087661    -3.110953     4.580646
O    -2.984938    -3.380774     4.879618
H    -3.138718    -4.276673     4.526746
H    -5.336605    -1.983055     6.979522
O    -6.007496    -1.494659     6.477215
H    -5.950132    -1.842090     5.563073
H    -3.385838    -3.550128     7.986016
O    -3.693363    -2.889769     7.361633
H    -3.344187    -3.158339     6.471376
N    -4.168726    -5.971620     4.362810
H    -4.420237    -6.028259     3.422354
H    -5.005216    -5.939443     4.836068
