42

H    -0.394660     6.876232    -2.270135
O    -1.154484     7.275450    -2.769050
H    -1.926162     7.159167    -2.166865
H    -1.014595     4.458833    -3.875534
O    -1.674755     5.092880    -4.206297
H    -1.466626     5.938790    -3.754253
H     0.684739     3.238662    -2.598197
O     0.656484     3.636708    -3.505668
H     0.642451     2.844225    -4.057090
H    -1.216635     1.457370    -3.896502
O    -1.824659     2.123035    -4.281767
H    -1.523905     2.339960    -5.186149
H     2.206422     5.821726    -1.202452
O     3.135247     5.521230    -1.056189
H     3.330119     4.909586    -1.790104
H     3.414266     3.374522    -3.562148
O     3.335843     4.361546    -3.501394
H     2.372786     4.455091    -3.563640
H     1.319452     1.562853    -5.862995
O     1.153381     0.992665    -5.080480
H     1.535476     0.131971    -5.363777
H    -1.372770     5.872425    -7.142102
O    -2.034082     5.280955    -6.772512
H    -1.815585     5.258686    -5.791950
H     2.634995     1.403980    -4.102696
O     3.507965     1.776861    -3.873112
H     3.821749     1.277102    -3.082472
H     0.706118     2.891611    -7.181579
O     1.665995     2.664124    -7.244422
H     1.695570     1.900642    -7.857386
H     3.491972     2.894838    -6.686388
O     4.326743     2.616330    -6.289881
H     4.087159     2.279891    -5.399164
H    -1.440976     3.682725    -6.994088
O    -0.949833     2.862005    -6.736782
H    -1.198433     2.114648    -7.332663
H     4.346502     6.271067    -3.981033
O     5.037754     6.910765    -3.763086
H     5.759817     6.345096    -3.459863
N     0.998928     5.738953    -6.167085
H     0.696434     5.257652    -5.388145
H     1.573848     5.111907    -6.618407
