27

H     4.247431     5.539369     0.306694
O     4.540958     5.613297     1.234271
H     3.850011     6.184234     1.636166
H     4.901099     5.500704     5.397991
O     4.307330     6.217881     5.125414
H     3.708804     5.729591     4.514153
H     2.755318     3.666237     4.017601
O     2.580861     4.592014     3.772367
H     2.394656     4.593369     2.807602
H     5.282290     3.679033     3.747079
O     5.932490     3.979830     4.404092
H     6.453600     4.659565     3.941985
H     4.538879     3.913839     1.721521
O     4.350589     3.003601     2.032160
H     5.044603     2.417285     1.697512
H     2.752912     6.566770     6.142645
O     1.789505     6.580005     6.272070
H     1.517625     5.642740     6.156464
H     4.722415     8.681145     0.092109
O     4.948280     8.968114     1.000923
H     5.703681     8.423344     1.250107
H     3.522770     8.292598     1.905062
O     2.794521     7.648591     2.029816
H     2.286930     7.879996     2.832647
N     6.492528     6.441657     3.121959
H     5.787167     6.683782     3.749142
H     5.996332     6.185355     2.326612
