603

H     0.173552     3.026178    -0.686870
O     0.696908     2.359508    -1.181390
H     1.636103     2.490687    -0.909765
H    -0.080400    -1.306878     3.149560
O     0.307670    -0.606125     2.602959
H    -0.171781     0.206112     2.836718
H    -2.424334     2.397614    -0.537728
O    -2.210110     1.929718     0.286559
H    -2.223472     0.981190     0.063654
H    -4.675486     0.531583     2.189446
O    -4.990128    -0.402361     2.204276
H    -4.485486    -0.879939     1.537651
H     0.050418    -0.311520     0.948381
O    -0.150671    -0.076121     0.021872
H     0.186873     0.820829    -0.100742
H    -0.150579    -3.576253     3.780313
O    -0.430685    -2.746160     4.200064
H     0.216577    -2.572956     4.900169
H    -4.908102     2.512908     1.334701
O    -4.265197     2.107565     1.948137
H    -3.423697     2.090935     1.433292
H    -3.283871     3.880077    -2.212932
O    -2.543923     3.286586    -1.984076
H    -2.186730     2.997264    -2.843996
H    -0.129168    -3.808937     0.506021
O     0.209331    -2.989453     0.921287
H    -0.578718    -2.505261     1.234784
H    -2.383715    -1.546369     2.474445
O    -2.195462    -2.012937     1.633700
H    -2.457322    -1.427829     0.903908
H     2.057199    -1.443528    -1.127964
O     2.291978    -1.693827    -0.210654
H     1.505269    -2.123711     0.175822
H    -1.407653     1.819115     1.908947
O    -1.497274     1.422428     2.785529
H    -1.482442     2.135334     3.449907
H     0.195314    -2.709373    -1.570377
O    -0.561871    -2.099494    -1.624070
H    -0.382979    -1.372328    -0.991034
H    -3.446226    -2.940782    -0.381767
O    -2.728026    -3.431157    -0.802905
H    -2.020542    -2.798751    -1.024374
H     2.762496     0.136922     2.922439
O     2.864544    -0.043890     3.884120
H     2.954374     0.849727     4.287399
H    -3.567735     6.364612    -0.545846
O    -3.334219     7.027753    -1.248268
H    -3.189756     7.873002    -0.778338
H     3.885921     0.592587     1.171219
O     2.936086     0.408554     1.289647
H     2.699774    -0.345698     0.712224
H    -5.806246     0.818319    -1.594455
O    -4.896117     1.148823    -1.472661
H    -5.008001     1.976535    -0.960424
H    -1.239757     5.392145     2.201647
O    -1.863417     4.643548     2.087152
H    -1.937289     4.225231     2.950269
H     3.469053     2.769218     0.408212
O     3.218289     2.724451    -0.530152
H     3.552833     1.882514    -0.880508
H     1.482343    -4.700354    -2.251396
O     1.545898    -3.921847    -1.679797
H     2.338398    -3.459108    -2.033518
H    -0.945040    -0.096431    -2.549392
O    -0.315198     0.558642    -2.876629
H    -0.053401     1.141869    -2.140936
H     1.695622    -4.685359    -0.180657
O     1.806448    -5.320888     0.562665
H     1.344750    -6.133969     0.269091
H    -1.241660    -3.278433    -2.875543
O    -1.067126    -3.961943    -3.535777
H    -0.937432    -4.807995    -3.066052
H    -2.795789     3.302900     4.703184
O    -1.814658     3.303396     4.666270
H    -1.518283     2.903587     5.502272
H     0.939799     5.039036     4.062283
O    -0.006936     5.268306     4.115952
H    -0.475502     4.464096     4.376923
H    -1.734566    -4.661089    -0.363975
O    -0.966938    -5.198797    -0.080008
H    -1.310950    -5.886115     0.499863
H    -3.945342     5.817396    -2.600334
O    -4.304722     4.987271    -2.930597
H    -4.146313     4.946203    -3.897493
H    -2.431738    -3.698327     1.943889
O    -2.446383    -4.601830     2.321364
H    -1.505556    -4.837018     2.459668
H    -4.711541    -3.002356    -2.886533
O    -3.858642    -3.232449    -3.293446
H    -3.525021    -4.025229    -2.828636
H     0.329921     1.380153     4.608150
O     0.831931     2.141734     4.271590
H     0.881436     2.801402     4.977760
H    -4.661197    -5.190656    -1.555160
O    -5.361955    -4.837954    -0.979709
H    -5.145806    -5.191168    -0.095867
H     2.318008    -6.485288    -4.040174
O     1.982468    -6.156135    -3.186204
H     2.420206    -6.727882    -2.523334
H     0.449186    -3.388219    -4.005790
O     1.249500    -3.018887    -4.431494
H     0.926490    -2.650218    -5.279937
H     1.959753    -1.747230     2.975312
O     2.117135    -2.677924     2.758833
H     1.430081    -2.894649     2.094062
H    -3.035742    -1.827180    -3.203090
O    -2.617392    -0.938122    -3.140755
H    -3.276267    -0.297205    -3.460027
H    -3.220240     4.963339     1.076038
O    -4.004075     5.334484     0.622885
H    -4.418643     5.891418     1.330607
H     0.858598     2.255456     2.581417
O     0.956892     2.249930     1.609886
H     1.685323     1.628612     1.444689
H     0.153991     5.651966    -0.771121
O     0.670576     6.315313    -1.283219
H     0.813751     7.115651    -0.728286
H     0.311294     7.036266     2.575798
O    -0.052064     6.653902     1.759763
H     0.613144     5.984633     1.497728
H    -2.489492     0.208382     3.343315
O    -2.707488    -0.605528     3.849938
H    -1.945165    -0.641953     4.469676
H    -0.897346     0.555413     6.022939
O    -0.623716     0.036138     5.248250
H     0.092268    -0.565021     5.533852
H     0.712572    -4.993810     1.981627
O     0.172876    -5.103651     2.787778
H     0.320977    -6.023468     3.060839
H    -2.110761    -8.098401     0.461599
O    -1.787657    -7.608159     1.245138
H    -2.573699    -7.298820     1.702927
H    -0.422946     6.855457    -2.338605
O    -1.173335     7.271676    -2.836153
H    -1.959567     7.144279    -2.268079
H    -1.142507     4.302450     0.566834
O    -0.772957     4.364478    -0.330651
H    -1.479954     4.118040    -0.960465
H    -4.426066     2.734623     3.510943
O    -4.422583     2.906618     4.475104
H    -4.501992     2.023904     4.885895
H     2.028533    -3.574730     4.240010
O     1.968422    -4.045827     5.094097
H     2.475780    -3.506879     5.722562
H     4.682094    -3.184280     0.827074
O     4.518837    -3.110245    -0.139104
H     3.658194    -2.635914    -0.220836
H    -2.741695    -0.763056    -1.347303
O    -3.067131    -0.491694    -0.472603
H    -3.870553     0.029909    -0.677972
H    -1.644358    -0.777050    -4.630124
O    -1.140732    -0.559663    -5.435590
H    -0.431333     0.038542    -5.152996
H     1.773225    -1.719116    -3.383542
O     1.864834    -0.970795    -2.761980
H     1.085371    -0.396539    -2.891893
H     3.661612    -3.112369     2.541184
O     4.621136    -3.338458     2.465728
H     4.679113    -4.298276     2.593760
H     3.435291    -6.111360     3.118848
O     3.787924    -5.910600     2.217411
H     3.047833    -5.568189     1.676009
H    -3.383033     1.591210    -4.176979
O    -4.232259     1.128733    -3.986218
H    -4.438605     1.265020    -3.025837
H    -5.114056     4.127830     0.071418
O    -5.551308     3.261300    -0.033159
H    -6.483358     3.378873    -0.310142
H     6.716157    -1.169081    -1.383379
O     5.944746    -1.020792    -0.830007
H     5.529105    -1.889583    -0.629845
H     4.578732    -3.163814    -2.482503
O     3.709249    -2.995531    -2.896377
H     3.712343    -3.615603    -3.651516
H     4.439185    -2.277242     5.608866
O     4.099755    -2.742596     6.403595
H     4.437324    -3.646719     6.322386
H    -0.776921     6.338334     5.064070
O    -1.374087     6.913173     5.602715
H    -1.390842     7.789655     5.160399
H     4.677081    -0.129397    -1.483190
O     3.907276     0.410301    -1.744719
H     3.215862    -0.193036    -2.071943
H    -0.786173     4.509865    -4.046148
O    -1.570547     5.051794    -4.252152
H    -1.417544     5.919365    -3.831926
H     0.624812     3.197138    -2.668982
O     0.626524     3.572753    -3.578137
H     0.676537     2.808531    -4.162504
H    -5.381245    -5.211257     1.812407
O    -4.683670    -5.804432     1.456353
H    -3.843702    -5.385608     1.724027
H     7.857347    -1.678230    -4.057182
O     7.601059    -1.364298    -3.157298
H     7.111299    -0.522182    -3.313762
H     3.683628    -5.074000    -5.297037
O     4.446338    -4.697618    -4.818650
H     4.834423    -5.406811    -4.273007
H    -3.788968     0.009999     4.940951
O    -4.389391     0.473450     5.574301
H    -5.046694    -0.186286     5.869190
H     3.462498    -5.937830    -0.524407
O     4.333583    -5.688570    -0.845089
H     4.407503    -4.725845    -0.703123
H     4.972150    -0.332455    -4.177893
O     4.437462    -1.045635    -4.565256
H     4.115425    -1.629224    -3.845716
H    -1.207788     1.557822    -3.939614
O    -1.861336     2.175974    -4.324416
H    -1.506176     2.506505    -5.172323
H     4.879102    -6.316193    -2.323466
O     5.210599    -6.641262    -3.189564
H     6.030391    -7.119747    -3.004397
H     8.729102    -5.075859    -2.939255
O     8.040507    -5.494688    -2.378419
H     8.077721    -6.452078    -2.479087
H     2.307676     4.722267     0.434106
O     1.729633     4.704237     1.206163
H     1.376086     3.782643     1.287026
H    -4.414182    -2.645521     4.243428
O    -5.309669    -2.308635     4.043215
H    -5.176754    -1.528239     3.465930
H    -5.851516    -3.215228     1.334243
O    -6.310308    -3.772593     2.004927
H    -6.120949    -3.335296     2.854257
H     1.676978     3.479368     6.848486
O     1.050985     3.992294     6.315613
H     0.269190     4.143800     6.889293
H     4.999062    -2.154020     3.601405
O     5.019257    -1.434549     4.264267
H     4.205321    -0.881065     4.109072
H     2.402029    -5.567102     4.836135
O     2.784046    -6.450122     4.576388
H     2.040312    -7.034189     4.405249
H     2.233105    -4.524663    -6.794112
O     2.068015    -5.012071    -5.977089
H     1.802957    -4.320746    -5.322065
H     6.432119    -4.090191    -0.519426
O     7.187895    -4.490074    -0.057616
H     7.694407    -4.912596    -0.779099
H    -1.735656     4.492223     7.694864
O    -0.835976     4.593603     8.077458
H    -0.657838     5.553290     8.100215
H    -5.028210     5.728841    -5.596054
O    -4.479880     4.918400    -5.636119
H    -3.686295     5.114806    -6.169369
H     3.246960    -2.535670    -8.446604
O     3.162979    -3.066756    -7.643861
H     4.040864    -3.039734    -7.217796
H    -0.709312     8.817544    -2.294206
O    -0.589056     9.646758    -1.776251
H     0.176036     9.476119    -1.201852
H     2.065156    -0.903122     5.203124
O     1.495275    -1.429544     5.792839
H     1.590921    -1.082897     6.689347
H     5.177349    -2.022758    -5.708798
O     5.524420    -2.788782    -6.230487
H     5.254336    -3.578770    -5.710961
H     5.705245    -5.195871     4.673901
O     5.185087    -5.111008     5.501916
H     4.465359    -5.745460     5.419554
H    -3.976768     1.141069     7.012133
O    -3.783675     1.619134     7.854443
H    -4.660262     2.002276     8.117278
H    -1.899130     9.603805    -0.759535
O    -2.758914     9.474353    -0.284256
H    -3.371680     10.103468    -0.668331
H    -5.894217     4.665866    -2.943655
O    -6.804237     4.522886    -3.292722
H    -6.634793     3.802966    -3.945200
H     0.093695    -7.070724    -1.136704
O     0.561416    -7.503766    -0.389496
H    -0.115415    -7.699908     0.261432
H    -7.591027     3.730945    -1.928539
O    -7.948889     3.212181    -1.176526
H    -7.802243     2.281744    -1.469032
H     3.976956    -0.874642     6.972674
O     3.982636     0.089534     6.961859
H     4.792967     0.381057     6.527664
H     2.219405     5.796186    -1.199758
O     3.155882     5.506699    -1.087469
H     3.332271     4.965709    -1.880179
H     6.551375    -5.914397     0.658660
O     6.186459    -6.650916     1.194593
H     5.281743    -6.376161     1.423534
H    -3.879651     4.725810     7.780092
O    -3.313730     4.263903     7.119787
H    -3.503525     3.319994     7.232706
H     5.767588    -7.933524     0.130094
O     5.480005    -8.622560    -0.505451
H     4.648689    -8.300244    -0.897811
H    -0.560788     2.047929     7.687497
O    -1.195976     1.980679     6.954320
H    -2.062790     1.836706     7.353691
H    -6.398069    -0.143596     1.076381
O    -6.721206    -0.226240     0.164430
H    -7.637676    -0.504825     0.185024
H    -5.383124    -3.085071    -0.571939
O    -5.131369    -2.380167     0.051214
H    -5.704515    -1.610033    -0.137276
H     4.283571     5.586339     0.294986
O     4.619504     5.689708     1.199078
H     3.924719     6.198484     1.652517
H    -9.062284    -1.774700    -2.231891
O    -8.513792    -1.571219    -1.445631
H    -8.638147    -2.308602    -0.808763
H    -5.401479     3.391800    -5.574198
O    -5.971217     2.689363    -5.199884
H    -5.327155     2.095804    -4.744279
H     3.148214    -0.892868    -5.666877
O     2.291275    -1.015834    -6.130075
H     2.377914    -1.865460    -6.602325
H     8.082583    -1.340470    -6.054151
O     8.094604    -2.203562    -5.596115
H     7.238980    -2.606622    -5.843667
H     7.580999     0.998145    -6.337413
O     7.393419     0.148560    -6.748603
H     6.412164     0.095503    -6.782045
H    -7.866125    -3.718583     0.953814
O    -8.546427    -3.613540     0.271170
H    -8.448443    -4.373495    -0.329917
H    -2.446908     8.728274     1.281982
O    -2.293729     8.140417     2.034871
H    -1.521793     7.589642     1.812071
H    -4.472512     6.424024     3.494610
O    -4.645656     6.847759     2.637438
H    -3.884484     7.436147     2.495935
H     3.361565     3.446046    -3.596774
O     3.205130     4.415008    -3.504405
H     2.239900     4.476409    -3.609800
H    -6.138419    -1.635707    -3.428132
O    -6.217769    -2.209857    -2.640023
H    -7.003399    -1.903826    -2.132823
H     6.459226     1.071760     4.715473
O     6.065406     1.610600     5.418494
H     6.250065     2.529307     5.125537
H     1.320945     1.712085    -5.833490
O     1.130238     1.117234    -5.077473
H     1.495610     0.254710    -5.346824
H    -2.487496     2.969241     10.482238
O    -2.273271     2.061879     10.209713
H    -2.872528     1.859178     9.479457
H     7.618651    -0.475147     3.058477
O     6.867352     0.098577     3.228344
H     6.178071    -0.503225     3.610912
H    -5.656667    -8.076086    -0.675428
O    -4.919454    -8.141450    -0.031229
H    -4.924336    -7.323393     0.489478
H    -5.205904    -0.151010    -4.707343
O    -5.811978    -0.871855    -4.945908
H    -6.663274    -0.445519    -5.131279
H     1.850063    -0.209680    -7.524175
O     1.644624     0.260611    -8.368055
H     2.220100    -0.144296    -9.022441
H     4.830562    -1.398925    -9.319844
O     3.903951    -1.172980    -9.599632
H     3.881195    -1.292842    -10.548377
H     7.564376    -2.546438     4.178546
O     7.708364    -2.583435     3.218661
H     7.216878    -3.376410     2.949573
H     6.726703    -5.875394     2.671249
O     6.788424    -5.198741     3.370996
H     7.665733    -5.280605     3.786510
H    -1.856561     8.943978     3.484078
O    -1.607107     9.251233     4.380883
H    -2.454847     9.381556     4.839026
H    -7.446869     1.451907    -5.244194
O    -7.970629     0.710356    -4.906128
H    -8.917129     1.049154    -4.895293
H     6.886254    -1.081288    -8.426379
O     6.305525    -1.804385    -8.687082
H     6.081569    -2.253675    -7.853759
H    -1.735251     6.220094    -7.034431
O    -2.126950     5.393763    -6.755437
H    -1.872111     5.267139    -5.792771
H    -0.002456     3.321978     9.014095
O     0.197964     2.403213     9.270046
H    -0.598116     2.137567     9.779275
H     6.737527    -2.768981    -2.723676
O     6.210194    -3.514171    -2.379920
H     6.680400    -4.324048    -2.626356
H    -4.100919    -3.098580    -4.931268
O    -4.256565    -2.988394    -5.895930
H    -4.808103    -2.197846    -5.951351
H     1.978673     2.199601     8.452299
O     2.639950     2.312866     7.759892
H     3.064605     1.443741     7.644908
H    -6.915961    -5.227694    -1.370307
O    -7.831150    -5.500875    -1.612490
H    -7.968611    -5.100206    -2.495908
H    -3.845893     5.251190     5.695270
O    -3.816960     6.018487     5.102686
H    -2.883617     6.315773     5.194152
H    -7.859495    -0.040022    -1.859304
O    -7.431664     0.742315    -2.245046
H    -7.619384     0.716180    -3.213326
H     5.819081     0.143563     0.391268
O     5.596730     0.865501     1.011553
H     6.110003     0.673193     1.823316
H    -6.223461     3.302064     7.404555
O    -6.091452     2.785804     8.233725
H    -6.689637     2.022456     8.148692
H     2.279950    -8.072624    -0.839345
O     2.954988    -8.059183    -1.537476
H     2.730516    -8.775021    -2.148717
H    -2.770075    -3.984381    -6.186305
O    -2.013327    -4.547380    -5.956066
H    -1.735975    -4.253771    -5.060020
H    -5.658960     3.750471     5.315453
O    -6.307855     4.146372     5.933242
H    -6.146079     5.090706     5.918958
H    -1.026034    -7.126707    -3.151476
O    -0.553913    -6.454513    -2.625946
H     0.352161    -6.383225    -3.009761
H     4.434000     2.034273     5.109268
O     3.491361     2.271003     4.991501
H     3.109650     2.287189     5.874530
H     4.094864     4.675911     6.278088
O     4.171548     5.405300     5.658575
H     3.602410     5.161709     4.889846
H     2.746299     3.628417     3.905586
O     2.565242     4.567644     3.738230
H     2.442949     4.664010     2.772037
H     9.370694     0.232306    -1.102071
O     8.565503     0.393780    -0.606686
H     8.393561    -0.424662    -0.111516
H    -2.105411     5.329629     10.644485
O    -2.825002     4.699455     10.878862
H    -3.041241     4.877558     11.794382
H     7.963565    -2.989875     0.306074
O     8.382858    -2.141462     0.558504
H     8.319944    -2.135174     1.521007
H     5.350918     3.682626     3.500144
O     6.008407     3.951349     4.163736
H     5.595116     4.668907     4.665637
H    -4.215120     5.024238     9.785068
O    -4.850638     5.171809     9.064462
H    -5.460338     4.421413     9.065370
H    -7.029760    -3.508658    -3.462817
O    -7.648563    -4.125183    -3.906611
H    -7.129190    -4.565350    -4.611108
H     0.021160     6.144302     10.757289
O    -0.845065     6.472721     10.511798
H    -0.732933     6.902193     9.644500
H     2.553912     1.492056    -4.119023
O     3.431646     1.848308    -3.883218
H     3.755946     1.335245    -3.112975
H    -6.970571    -0.229118     7.236869
O    -7.480551     0.548587     7.516935
H    -8.106583     0.728317     6.814430
H    -2.735823    -9.886438    -0.808073
O    -2.675720    -8.944872    -0.969567
H    -3.582125    -8.580620    -0.727103
H    -10.024667     2.556801    -5.467943
O    -10.308318     1.836851    -4.872340
H    -10.391484     2.292313    -4.002782
H    -2.064963    -3.025596     4.621925
O    -2.938526    -3.467811     4.694831
H    -2.932810    -4.087188     3.939784
H    -0.166982    -7.982410     2.496644
O     0.660074    -7.768545     2.941679
H     1.377514    -8.063577     2.353400
H     6.712030    -2.348846     6.373816
O     7.162110    -3.058168     5.910212
H     6.534173    -3.794912     5.875109
H    -5.265877    -2.009147     6.959186
O    -5.944796    -1.513619     6.476279
H    -5.930346    -1.892476     5.567821
H     0.787137     3.018575    -7.126017
O     1.705582     2.690789    -7.183958
H     1.692638     1.941996    -7.808423
H    -3.979942     8.754635     6.665321
O    -3.981148     8.750117     5.707957
H    -4.104424     7.821478     5.443077
H    -2.117509     10.299751    -2.753319
O    -3.020017     10.475205    -3.056457
H    -2.951672     11.111646    -3.767456
H     9.414844    -4.030948     4.020614
O     9.138871    -4.708685     4.645288
H     8.710183    -4.236223     5.369842
H    -0.753723    -6.013186    -5.831341
O    -0.047652    -6.576981    -5.498643
H     0.785883    -6.113725    -5.719891
H     1.784319     8.278504     0.640817
O     1.477254     8.597414    -0.236675
H     2.290510     8.636948    -0.769346
H     3.451049     2.924326    -6.681343
O     4.280737     2.637744    -6.273822
H     4.039115     2.364586    -5.363827
H     3.690151     7.129964    -1.256808
O     3.891755     8.065973    -1.472899
H     4.259272     8.009121    -2.366902
H     4.352757    -0.012631    -7.928152
O     4.731893     0.136577    -7.060115
H     4.548301     1.068414    -6.817935
H     6.004553     1.945676    -0.499868
O     6.566851     2.139367    -1.263753
H     7.393410     1.662343    -1.071611
H     6.684480    -8.418942    -1.614903
O     7.317568    -8.207763    -2.353785
H     7.685485    -9.041521    -2.641545
H    -5.319537    -5.816525    -5.385318
O    -5.939463    -5.146822    -5.699346
H    -5.391495    -4.377392    -5.939447
H     0.664847     7.185925     7.583222
O    -0.235708     7.211622     7.945309
H    -0.793765     7.223113     7.129630
H    -8.921544    -2.873062    -4.072640
O    -9.442983    -2.066610    -3.900925
H    -9.164190    -1.400869    -4.533593
H    -2.418389    -6.002458    -2.129199
O    -3.297929    -5.718609    -2.395802
H    -3.486975    -6.095689    -3.280215
H    -3.004773    -5.921338    -5.393738
O    -3.601034    -6.531850    -4.917968
H    -3.116476    -7.350659    -4.751930
H    -1.440037     3.706119    -6.990673
O    -0.898831     2.952322    -6.717219
H    -1.133330     2.165247    -7.266029
H    -0.248883     0.398978    -8.219811
O    -1.144164     0.633376    -7.933250
H    -1.316219     0.109268    -7.134963
H    -10.292356     4.278324    -3.008018
O    -10.429039     3.417466    -2.582250
H    -9.677799     3.335467    -1.963086
H     4.554623     4.093138     1.696451
O     4.349239     3.172140     1.976807
H     5.065987     2.597608     1.694868
H     6.449996     1.405766    -4.244660
O     6.150531     0.782229    -3.548631
H     6.182861     1.279188    -2.705780
H     9.617400    -2.203820    -0.957424
O     9.890754    -1.989913    -1.858324
H     9.088038    -1.654568    -2.300022
H     9.950579    -3.301445    -3.125610
O     9.683339    -3.955458    -3.798535
H     9.286084    -3.450348    -4.518594
H    -7.698159    -8.602556    -1.631932
O    -6.962246    -8.006291    -1.762368
H    -7.342740    -7.094325    -1.753521
H     4.112679     6.082660    -3.847653
O     4.771653     6.786181    -3.765304
H     5.609775     6.335083    -3.630047
H     0.086596    -8.182700    -5.204772
O     0.113919    -9.165259    -5.071163
H     0.262445    -9.530221    -5.943561
H    -2.334977    -8.688405    -2.696832
O    -2.104294    -8.425336    -3.607392
H    -1.457314    -9.042812    -3.967172
H     2.185216    -10.819689    -3.486471
O     2.136427    -9.865240    -3.463609
H     1.348722    -9.597661    -3.988067
H     6.793285     3.338858    -4.604384
O     6.851203     2.659453    -5.304027
H     6.055819     2.789198    -5.842713
H    -3.550449    -3.721671     7.734687
O    -3.668431    -2.935146     7.203540
H    -3.419286    -3.175229     6.284909
H    -0.667245    -3.379224    -6.720111
O    -0.039133    -2.645888    -6.730454
H    -0.522463    -1.871330    -6.389297
H     0.646628     0.475599     8.746648
O     0.654284    -0.240115     8.107115
H    -0.267314    -0.532044     8.022943
H    -5.719649     7.378368    -4.205123
O    -6.259513     6.815176    -4.804113
H    -6.548641     6.058510    -4.240000
H    -4.326930     9.086212    -3.266102
O    -4.865236     8.293528    -3.144565
H    -4.445616     7.813806    -2.411333
H    -9.587811     6.570246    -4.302954
O    -10.074096     5.712414    -4.383515
H    -10.923100     5.950826    -4.768598
H     2.748490     6.531658     6.117226
O     1.788351     6.625654     6.217284
H     1.447251     5.710991     6.118145
H     4.759962     8.558344     0.051072
O     5.079537     8.561688     0.971214
H     5.489932     7.699075     1.102503
H     4.132291    -7.425020    -4.345172
O     3.373401    -7.712860    -4.884709
H     3.096692    -8.554020    -4.506371
H     0.345476     8.665706     4.214943
O     1.023816     8.022285     3.985379
H     1.254774     7.531768     4.800283
H     5.194427     4.197434    -3.184259
O     6.156076     4.170875    -3.134068
H     6.369091     3.591118    -2.386050
H    -2.570407    -1.541321     7.580232
O    -2.061929    -0.745968     7.796972
H    -2.688425    -0.121213     8.172469
H    -8.520801     8.425681    -3.510241
O    -8.674272     8.037135    -4.377425
H    -7.786516     7.704966    -4.645361
H     3.540375    -8.970928     1.092358
O     2.862640    -8.340714     1.342255
H     3.335704    -7.533533     1.619388
H     3.546620     8.182661     1.800422
O     2.757476     7.617750     1.915765
H     2.313830     7.853110     2.743393
N    -8.991338     3.933409    -6.290506
H    -9.210373     4.628556    -5.638515
H    -8.047336     3.778283    -6.181202
