36
Coordinates from ORCA-job grain_mol_opt.QMRegion
  H   -0.78610137074748      6.29822391962496      4.94671937258748
  O   -1.39642928856325      6.89242906925821      5.45921152227507
  H   -1.32738152831433      7.75653506025903      4.98815031727021
  H   -1.67389918509501      4.39698319064438      7.60337082829180
  O   -0.81543455166945      4.54978863794937      8.06265541773738
  H   -0.58637165442477      5.49316225253129      7.96976709130188
  H   -3.82672707802667      4.60710900348004      7.57550643772870
  O   -3.23194470071928      4.09667409045601      6.98917934573372
  H   -3.43880604027092      3.17405579055678      7.23539746626891
  H   -1.69396479939940      9.00078902540143      3.39064088570681
  O   -1.34058037173682      9.33852694364603      4.24284767591157
  H   -2.13590562316601      9.46982677642449      4.80118789032514
  H   -3.87249306569352      5.09762816193857      5.28539338526314
  O   -3.95579588199949      6.04293439203933      5.10206999684240
  H   -3.03079047392577      6.36451629111126      5.21686444861046
  H   -5.69010640313709      3.68684177300105      5.32876181383949
  O   -6.39203210183210      4.06990287182228      5.89653275752622
  H   -6.16624551021608      5.00518795112308      5.93911965612744
  H   -2.05351871423295      5.32809564548017     10.58336113860491
  O   -2.75979903004353      4.69162143047723     10.82425741196409
  H   -2.88905157821910      4.78353223256764     11.77094943752098
  H   -4.20801391177091      4.98776643066556      9.73194322440884
  O   -4.81877282482842      5.17484317092816      8.99179291045320
  H   -5.42978565990892      4.41974628068705      8.95927913955050
  H   -0.78761672235523      7.49606651378772     10.81493016618199
  O   -1.14416885883290      6.86572978156666     10.18504507700794
  H   -0.64891998294006      7.02509470527011      9.34134514891027
  H   -3.43462246910308      8.71802481816934      6.68536195573433
  O   -3.60608032898966      9.16495486535204      5.83456389829941
  H   -4.15442178346637      8.53085923346709      5.35828340826850
  H   0.74539712473957      7.10117433070878      7.38768836415714
  O   -0.15462489689222      7.17149329649996      7.76425683829470
  H   -0.72147994756244      7.17599625804533      6.94169224646151
  O   -3.39490861489143      7.72535964486801      8.29741995579862
  H   -2.72930425485013      7.58353834686696      8.98517093127192
  H   -4.02553556914507      6.99964851691070      8.40062010883751
