24
Coordinates from ORCA-job grain_mol_opt.QMRegion
  H   2.34424326776442     -6.53531482438402     -3.96497402883410
  O   2.00146896446495     -6.20212759833895     -3.12511225979181
  H   2.40150289431545     -6.80846663740971     -2.46149672699277
  H   3.72034828705830     -5.02525911573191     -5.26631205371403
  O   4.48861891444486     -4.68058810422063     -4.77329515610155
  H   4.86652866050363     -5.38562885606619     -4.21662812056642
  H   2.25305029105562     -4.38937003221063     -6.77260701810846
  O   2.10425635228655     -4.91109624138225     -5.96759611445617
  H   1.84876653844758     -4.21447794793369     -5.30006458586769
  H   -0.85453320699739     -5.86204806549150     -5.92216217200845
  O   -0.14521541970607     -6.44256628851758     -5.61357873165988
  H   0.67401100300676     -5.92962890590211     -5.76170311169084
  H   0.00476966184934     -8.09255664211992     -5.16684958068815
  O   0.17635252894898     -9.06108045821090     -5.06381685926439
  H   0.65257218191790     -9.23707378187141     -5.89484552708864
  H   2.27807917614167    -10.72409576020935     -3.58803847930076
  O   2.13721817870779     -9.78436395825291     -3.46854856554443
  H   1.33307059078364     -9.51385483500200     -4.00053608059268
  H   4.26645196446524     -7.50128706923315     -4.36680288743234
  O   3.50396378316783     -7.83971697189535     -4.87370324799000
  H   3.21484322375096     -8.62665493791664     -4.36612276366443
  O   2.01824347669859     -8.68645166122416     -7.15422032501196
  H   2.68774891891515     -8.30067419881807     -6.55981806195375
  H   1.62553468190948     -7.92188539517077     -7.58830067362661
