30

H    -2.394407    -3.591467     1.929153
O    -2.421566    -4.534321     2.180724
H    -1.492908    -4.762116     2.395076
H    -2.168059    -8.103643     0.407126
O    -1.817698    -7.659594     1.211877
H    -2.590760    -7.352428     1.691440
H    -5.383505    -5.023142     1.768185
O    -4.717979    -5.726970     1.522830
H    -3.852702    -5.256457     1.586594
H    -4.454990    -2.515109     4.158007
O    -5.367361    -2.197332     3.979533
H    -5.233740    -1.403079     3.413377
H    -5.878991    -3.126609     1.239694
O    -6.346595    -3.690346     1.910107
H    -6.150143    -3.217989     2.745793
H    -5.719894    -8.078030    -0.757891
O    -5.046869    -8.156514    -0.042677
H    -5.016447    -7.284112     0.384055
H    -2.107515    -3.084566     4.589120
O    -3.004449    -3.350337     4.892571
H    -3.161755    -4.246442     4.540712
H    -5.344695    -1.932967     6.985517
O    -6.019424    -1.446976     6.485734
H    -5.966766    -1.796852     5.572052
H    -3.413063    -3.512541     7.996181
O    -3.715392    -2.849307     7.372345
H    -3.365949    -3.118711     6.482506
N    -4.187624    -5.936227     4.379711
H    -5.026372    -5.901601     4.849020
H    -4.435626    -5.995813     3.438511
