45
Coordinates from ORCA-job grain_mol_opt.QMRegion
  H   3.36498475975104      2.60800896458526      0.37949106682474
  O   3.25511692232963      2.66437543375935     -0.58402368003896
  H   3.54591746292584      1.79136768181170     -0.92510320837210
  H   2.18090235427833      4.72073924907712      0.45579022294956
  O   1.70124512394949      4.68653037966650      1.29297145983555
  H   1.30877194166046      3.77450031436134      1.34643308429897
  H   2.20453922855270      5.89010478299492     -1.22933580516083
  O   3.13407112392909      5.57693882691747     -1.08075697624945
  H   3.33247110408483      5.05550153312853     -1.88776816999065
  H   4.19547942229415      5.62682383852818      0.35260585867763
  O   4.58538005019672      5.69491571571892      1.24561284660132
  H   3.96394033837729      6.31052695324280      1.68463693454944
  H   6.47730880076509      1.07638084803327      4.91458144397391
  O   6.06643746131362      1.62480068490355      5.60096543146903
  H   6.22125602961992      2.53698866163450      5.27010210579412
  H   7.54689527684907     -0.62180179818186      3.20884255484941
  O   6.85319106806676      0.02151178761362      3.40150077688575
  H   6.14258152830091     -0.56687164017851      3.77917510464723
  H   5.80596859986310      0.19311430052890      0.41252348761461
  O   5.56180987497375      0.79553799242870      1.13970705021799
  H   6.03585676475798      0.46574685937832      1.93279476340880
  H   2.68869340091896      3.58420248135910      4.07453219656535
  O   2.52810895679701      4.52435356408971      3.88227777882269
  H   2.50689055700415      4.61494249703321      2.91077242629937
  H   9.41064379379472      0.04981119986481     -1.05685130114132
  O   8.59808772769131      0.25967331986031     -0.58258981261440
  H   8.42331924110326     -0.54324322985022     -0.05808414547113
  H   5.29774884420474      3.63411417851864      3.63438396540458
  O   6.00976078715547      3.98147950802278      4.21125332774225
  H   5.56159134572369      4.67669584763790      4.73126107058841
  H   6.57929185945255      2.67452092506264     -0.41039755365274
  O   6.82609267097340      2.29809861828300     -1.26687894457657
  H   7.51313511069997      1.64123571184449     -1.04369951658909
  H   4.40723827097183      3.97930625755075      1.79502026845625
  O   4.27139262712783      3.06391582775364      2.11458490631461
  H   4.96528216296795      2.53579507755097      1.68779841151473
  H   4.64463973523436      8.65099445160350      0.06975839527328
  O   4.96648880752975      8.81458919894590      0.98395656998784
  H   5.59356046887299      8.09575540677757      1.12270748132435
  H   5.31278173099938      4.16499926043360     -3.24154504519687
  O   6.26934328809400      4.28412688387054     -3.18306339419782
  H   6.55363770763099      3.68460228357092     -2.46454595699279
  O   6.95780169668444      4.08452254419445      1.08969935193248
  H   7.15531984685920      3.91186218785911      2.01765827011126
  H   6.34401760770143      4.83390818346792      1.13951625028406
