603

H     0.204529     3.032291    -0.630871
O     0.729664     2.363455    -1.121095
H     1.667240     2.492741    -0.844133
H    -0.089626    -1.307530     3.194366
O     0.308408    -0.606214     2.655893
H    -0.173739     0.206476     2.883554
H    -2.394817     2.411812    -0.499050
O    -2.187207     1.940274     0.325225
H    -2.203985     0.992633     0.099061
H    -4.671209     0.547029     2.207347
O    -4.987498    -0.386600     2.219278
H    -4.481236    -0.863637     1.553568
H     0.061966    -0.307920     0.997752
O    -0.131666    -0.071358     0.070298
H     0.206911     0.825750    -0.049166
H    -0.171214    -3.578536     3.819718
O    -0.448215    -2.747927     4.241031
H     0.193876    -2.584017     4.947029
H    -4.891190     2.530894     1.355799
O    -4.253942     2.120962     1.972711
H    -3.409457     2.103816     1.462978
H    -3.237923     3.900020    -2.178183
O    -2.501296     3.302879    -1.944215
H    -2.139342     3.015474    -2.802589
H    -0.125849    -3.804453     0.547009
O     0.212268    -2.987300     0.967346
H    -0.577033    -2.500873     1.274466
H    -2.388501    -1.538912     2.503564
O    -2.193603    -2.004273     1.663632
H    -2.450302    -1.417806     0.932906
H     2.078797    -1.442376    -1.067209
O     2.306128    -1.695073    -0.148482
H     1.515240    -2.123673     0.230862
H    -1.399568     1.823724     1.952141
O    -1.491034     1.425911     2.828238
H    -1.483658     2.138852     3.492916
H     0.216193    -2.702151    -1.525056
O    -0.539208    -2.090487    -1.582080
H    -0.362448    -1.364258    -0.947468
H    -3.434891    -2.924571    -0.362360
O    -2.714977    -3.416545    -0.778777
H    -2.004432    -2.785608    -0.994729
H     2.758766     0.122556     2.993497
O     2.855115    -0.056726     3.956951
H     2.944874     0.840438     4.354455
H    -3.525932     6.381493    -0.509732
O    -3.284044     7.044279    -1.208489
H    -3.144682     7.889293    -0.737273
H     3.896792     0.582956     1.249245
O     2.946638     0.398590     1.364930
H     2.710972    -0.350605     0.780367
H    -5.773606     0.844485    -1.583952
O    -4.863658     1.171495    -1.453053
H    -4.977083     1.999852    -0.941859
H    -1.220590     5.397103     2.252773
O    -1.844111     4.649208     2.133204
H    -1.926890     4.231246     2.995556
H     3.492599     2.762529     0.487496
O     3.248562     2.720287    -0.452463
H     3.582714     1.878284    -0.802957
H     1.501299    -4.695550    -2.200963
O     1.563835    -3.918670    -1.627009
H     2.359769    -3.457471    -1.975099
H    -0.910527    -0.083100    -2.507187
O    -0.274293     0.569069    -2.827850
H    -0.017547     1.151372    -2.089692
H     1.700534    -4.685556    -0.128945
O     1.803908    -5.322493     0.614367
H     1.342033    -6.133755     0.315833
H    -1.214072    -3.263882    -2.841478
O    -1.037126    -3.946908    -3.501627
H    -0.913190    -4.794167    -3.032581
H    -2.799503     3.307963     4.739003
O    -1.817924     3.303737     4.709738
H    -1.531260     2.900762     5.548224
H     0.945480     5.032370     4.128207
O    -0.000502     5.264397     4.177025
H    -0.474971     4.461682     4.431882
H    -1.728123    -4.649951    -0.335724
O    -0.964091    -5.190289    -0.046909
H    -1.314545    -5.878405     0.528158
H    -3.905848     5.834529    -2.566788
O    -4.254811     5.000363    -2.898290
H    -4.096263     4.966198    -3.865948
H    -2.438441    -3.689671     1.968712
O    -2.458292    -4.593635     2.344986
H    -1.519277    -4.832410     2.488643
H    -4.682752    -2.977403    -2.875028
O    -3.828475    -3.209995    -3.277510
H    -3.499833    -4.004133    -2.811497
H     0.316840     1.377020     4.660543
O     0.833346     2.132921     4.333605
H     0.871517     2.794667     5.038706
H    -4.648154    -5.168587    -1.548064
O    -5.352160    -4.815104    -0.977063
H    -5.143053    -5.170217    -0.092248
H     2.343813    -6.479616    -3.987489
O     2.003400    -6.151064    -3.135182
H     2.434726    -6.725593    -2.470530
H     0.484180    -3.376655    -3.960059
O     1.288735    -3.009239    -4.379301
H     0.972890    -2.637577    -5.229166
H     1.949293    -1.754020     3.031902
O     2.107212    -2.685052     2.817793
H     1.424895    -2.900043     2.147152
H    -3.001036    -1.806638    -3.178152
O    -2.579065    -0.920200    -3.110601
H    -3.233140    -0.274404    -3.433010
H    -3.194424     4.975982     1.114025
O    -3.974094     5.349655     0.656445
H    -4.392309     5.907235     1.361149
H     0.865731     2.252500     2.641557
O     0.971013     2.248198     1.670928
H     1.698345     1.624909     1.509172
H     0.194071     5.658073    -0.709313
O     0.718391     6.319863    -1.215414
H     0.857787     7.119748    -0.659033
H     0.332796     7.035711     2.641132
O    -0.025824     6.654835     1.822373
H     0.639651     5.985002     1.563150
H    -2.494253     0.214750     3.375266
O    -2.717962    -0.600245     3.877825
H    -1.961353    -0.640468     4.503550
H    -0.924514     0.552440     6.066025
O    -0.642574     0.033017     5.293484
H     0.064662    -0.574353     5.583298
H     0.701273    -4.995264     2.025813
O     0.156929    -5.104022     2.829061
H     0.299112    -6.025336     3.100537
H    -2.120672    -8.087937     0.480458
O    -1.801554    -7.599776     1.266942
H    -2.589899    -7.289503     1.720122
H    -0.369016     6.865719    -2.278394
O    -1.113353     7.285857    -2.780334
H    -1.905694     7.159375    -2.220007
H    -1.115530     4.310207     0.616454
O    -0.738482     4.371265    -0.277905
H    -1.442585     4.130131    -0.913529
H    -4.423990     2.746625     3.535080
O    -4.425194     2.916464     4.499652
H    -4.511525     2.033436     4.908210
H     2.006093    -3.585003     4.295542
O     1.936805    -4.054010     5.150139
H     2.444406    -3.519400     5.781440
H     4.684699    -3.195100     0.902030
O     4.527827    -3.118683    -0.064633
H     3.669178    -2.641568    -0.151629
H    -2.716970    -0.746735    -1.318525
O    -3.047559    -0.477025    -0.445144
H    -3.847511     0.048563    -0.655090
H    -1.597177    -0.757687    -4.593347
O    -1.086673    -0.541469    -5.394901
H    -0.378146     0.054980    -5.106474
H     1.809301    -1.712830    -3.325196
O     1.898988    -0.966597    -2.700866
H     1.122238    -0.389279    -2.835163
H     3.651806    -3.124471     2.609020
O     4.611659    -3.351618     2.542129
H     4.666779    -4.312226     2.666900
H     3.413355    -6.122923     3.179490
O     3.772875    -5.919964     2.281375
H     3.037023    -5.576234     1.734961
H    -3.325989     1.614282    -4.145657
O    -4.171498     1.143295    -3.958660
H    -4.393250     1.288640    -3.002944
H    -5.082588     4.148655     0.092533
O    -5.520521     3.282530    -0.012755
H    -6.449806     3.401736    -0.298528
H     6.739708    -1.181546    -1.290646
O     5.965642    -1.032391    -0.741140
H     5.545715    -1.900345    -0.546724
H     4.604185    -3.168280    -2.408122
O     3.737840    -2.996604    -2.827108
H     3.744139    -3.614839    -3.583776
H     4.374412    -2.384619     5.570623
O     4.066048    -2.846992     6.380533
H     4.447752    -3.740436     6.269970
H    -0.774871     6.336712     5.119939
O    -1.373616     6.911863     5.655779
H    -1.385588     7.789333     5.214925
H     4.704750    -0.136239    -1.402175
O     3.938059     0.406357    -1.666483
H     3.247283    -0.193757    -2.001143
H    -0.725281     4.526313    -3.992899
O    -1.507165     5.069331    -4.203741
H    -1.357499     5.935911    -3.780398
H     0.670810     3.205428    -2.608663
O     0.682293     3.582592    -3.516793
H     0.731647     2.819517    -4.102635
H    -5.391633    -5.193386     1.814368
O    -4.693407    -5.787947     1.461774
H    -3.854100    -5.372312     1.736199
H     7.897726    -1.689504    -3.957006
O     7.635967    -1.376523    -3.058280
H     7.150156    -0.532462    -3.216792
H     3.722308    -5.069963    -5.232357
O     4.482703    -4.696846    -4.747753
H     4.865015    -5.408403    -4.201141
H    -3.806600     0.016304     4.963256
O    -4.408850     0.480291     5.593783
H    -5.070337    -0.177555     5.883494
H     3.465693    -5.942781    -0.463568
O     4.340033    -5.695431    -0.776716
H     4.415534    -4.733162    -0.633141
H     5.017580    -0.334376    -4.095084
O     4.483597    -1.045435    -4.487262
H     4.154673    -1.629244    -3.771144
H    -1.156042     1.574466    -3.895902
O    -1.804757     2.195618    -4.283419
H    -1.444072     2.527478    -5.128371
H     4.893780    -6.321785    -2.253003
O     5.230099    -6.646014    -3.117484
H     6.047151    -7.127446    -2.927852
H     8.751445    -5.091918    -2.839683
O     8.057809    -5.509658    -2.284231
H     8.092736    -6.466965    -2.386678
H     2.336591     4.720187     0.508485
O     1.755634     4.700980     1.278442
H     1.396498     3.781264     1.352746
H    -4.433776    -2.635423     4.256944
O    -5.326695    -2.295658     4.050980
H    -5.187549    -1.514241     3.476426
H    -5.852231    -3.194989     1.336972
O    -6.317467    -3.752485     2.003156
H    -6.133007    -3.317303     2.854705
H     1.652028     3.457126     6.924261
O     1.038708     3.974847     6.384684
H     0.251451     4.135205     6.949899
H     4.988177    -2.171622     3.675869
O     5.002992    -1.453259     4.341020
H     4.192385    -0.896606     4.178327
H     2.367919    -5.580175     4.891336
O     2.749898    -6.462433     4.631856
H     2.006392    -7.044942     4.454397
H     2.283875    -4.513287    -6.738198
O     2.111583    -5.001786    -5.923299
H     1.844194    -4.310841    -5.268800
H     6.441212    -4.103962    -0.434617
O     7.192284    -4.506789     0.032309
H     7.702735    -4.929736    -0.686206
H    -1.756939     4.488585     7.741155
O    -0.858078     4.586368     8.126665
H    -0.679011     5.545606     8.155765
H    -5.095487     5.697301    -5.569675
O    -4.487609     4.933909    -5.587569
H    -3.728318     5.148427    -6.150746
H     3.314984    -2.524177    -8.379741
O     3.223955    -3.056698    -7.578695
H     4.098961    -3.033015    -7.146583
H    -0.650059     8.828708    -2.232306
O    -0.529103     9.656901    -1.712597
H     0.230822     9.482419    -1.132874
H     1.971058    -0.833437     5.221278
O     1.456708    -1.391784     5.837991
H     1.467643    -0.987147     6.719778
H     5.228151    -2.022481    -5.627887
O     5.576471    -2.788623    -6.148535
H     5.300345    -3.578756    -5.632486
H     5.674644    -5.215450     4.754962
O     5.147645    -5.125147     5.577989
H     4.429659    -5.761129     5.492496
H    -4.004523     1.143117     7.036610
O    -3.814643     1.619262     7.880325
H    -4.691264     2.005064     8.139012
H    -1.847829     9.616115    -0.704358
O    -2.710071     9.489343    -0.233348
H    -3.319758     10.118050    -0.623220
H    -5.936411     4.692201    -2.915976
O    -6.843669     4.573262    -3.263810
H    -6.750643     3.871135    -3.940794
H     0.097958    -7.063891    -1.100699
O     0.559189    -7.499363    -0.350834
H    -0.122876    -7.695255     0.294681
H    -7.629673     3.793730    -1.958133
O    -7.893585     3.206490    -1.219184
H    -7.749724     2.297911    -1.558683
H     4.339413    -0.879254     6.956801
O     4.444090     0.041806     7.239024
H     5.136317     0.425858     6.677735
H     2.263181     5.797072    -1.122913
O     3.198044     5.503558    -1.004509
H     3.377942     4.964509    -1.797762
H     6.546676    -5.930896     0.741363
O     6.175839    -6.667066     1.273646
H     5.270309    -6.390174     1.496480
H    -3.900169     4.727407     7.812536
O    -3.331298     4.264722     7.155019
H    -3.526159     3.321484     7.264642
H     5.760366    -7.946619     0.203457
O     5.474962    -8.633374    -0.435431
H     4.647397    -8.307766    -0.832915
H    -0.599526     2.062055     7.734022
O    -1.226075     1.969096     6.993358
H    -2.096137     1.834484     7.389068
H    -6.388552    -0.120078     1.081945
O    -6.704221    -0.203762     0.167561
H    -7.623215    -0.474019     0.181077
H    -5.370731    -3.062361    -0.565845
O    -5.120627    -2.360177     0.060853
H    -5.690258    -1.587418    -0.128657
H     4.316372     5.577573     0.385277
O     4.645762     5.676659     1.292353
H     3.950125     6.188645     1.741122
H    -9.035840    -1.741951    -2.245314
O    -8.490889    -1.540969    -1.457098
H    -8.621059    -2.277774    -0.820175
H    -5.502558     3.474633    -5.503599
O    -6.021509     2.763825    -5.091133
H    -5.356703     2.178136    -4.675014
H     3.202277    -0.886366    -5.597722
O     2.348111    -1.006282    -6.066681
H     2.435598    -1.855032    -6.540289
H     8.137820    -1.348385    -5.951688
O     8.143938    -2.212340    -5.495110
H     7.288935    -2.612357    -5.749643
H     7.645301     0.992310    -6.233981
O     7.457901     0.143964    -6.647810
H     6.476719     0.094190    -6.688315
H    -7.865837    -3.691282     0.942270
O    -8.541132    -3.583762     0.254954
H    -8.440928    -4.343185    -0.346398
H    -2.412916     8.737776     1.331412
O    -2.264843     8.148907     2.084764
H    -1.493873     7.596051     1.864624
H    -4.458493     6.436103     3.526431
O    -4.624941     6.861949     2.669093
H    -3.861309     7.448379     2.532970
H     3.414691     3.447877    -3.517274
O     3.261114     4.417049    -3.423566
H     2.296752     4.481966    -3.535659
H    -6.103101    -1.602738    -3.422095
O    -6.188887    -2.182071    -2.638485
H    -6.975187    -1.875229    -2.133112
H     6.450148     1.047021     4.809096
O     6.050210     1.581414     5.512509
H     6.237455     2.502844     5.226857
H     1.384172     1.724606    -5.771340
O     1.186924     1.128623    -5.017802
H     1.551008     0.265506    -5.286727
H    -2.529345     2.961462     10.521345
O    -2.315588     2.055466     10.245181
H    -2.914261     1.855672     9.513985
H     7.615343    -0.496441     3.158436
O     6.864214     0.077994     3.326882
H     6.171412    -0.524822     3.699630
H    -5.658479    -8.052540    -0.681029
O    -4.925918    -8.121260    -0.031966
H    -4.932090    -7.304341     0.490515
H    -5.159715    -0.115542    -4.690889
O    -5.775784    -0.827277    -4.933245
H    -6.613180    -0.385571    -5.134539
H     1.918890    -0.195675    -7.462302
O     1.720824     0.276601    -8.306755
H     2.299865    -0.128609    -8.957786
H     4.908102    -1.390393    -9.239780
O     3.984066    -1.161391    -9.525490
H     3.967680    -1.278817    -10.474669
H     7.546084    -2.574041     4.275110
O     7.693860    -2.607250     3.315679
H     7.204725    -3.400060     3.041689
H     6.707774    -5.896239     2.755955
O     6.766535    -5.221012     3.457368
H     7.640829    -5.306585     3.878652
H    -1.835225     8.948080     3.537764
O    -1.590634     9.252055     4.437166
H    -2.441064     9.384992     4.889546
H    -7.370114     1.571405    -5.234560
O    -7.945767     0.827226    -4.991660
H    -8.847882     1.226800    -4.919406
H     6.958566    -1.080825    -8.331711
O     6.377425    -1.801640    -8.597767
H     6.146412    -2.251894    -7.766923
H    -1.649009     6.244702    -6.982058
O    -2.047702     5.419241    -6.710256
H    -1.803384     5.288357    -5.745659
H    -0.166294     3.360218     8.980598
O     0.091683     2.459424     9.279072
H    -0.690550     2.191286     9.809890
H     6.765436    -2.779425    -2.633603
O     6.233695    -3.523615    -2.294383
H     6.703005    -4.334448    -2.539538
H    -4.059407    -3.069817    -4.915337
O    -4.209344    -2.956849    -5.880737
H    -4.756741    -2.164037    -5.939030
H     2.245848     2.192701     8.606045
O     2.782922     2.342544     7.816109
H     3.283766     1.515271     7.732740
H    -6.904170    -5.198920    -1.379224
O    -7.818700    -5.468386    -1.628439
H    -7.948880    -5.065669    -2.511829
H    -3.850945     5.256547     5.729402
O    -3.815595     6.024402     5.137887
H    -2.882382     6.319455     5.236405
H    -7.878349     0.090921    -1.952471
O    -7.386593     0.814482    -2.363741
H    -7.611240     0.803907    -3.317899
H     5.834588     0.130148     0.480224
O     5.609350     0.850747     1.101229
H     6.117985     0.656634     1.915043
H    -6.245772     3.311384     7.418143
O    -6.120593     2.792720     8.246754
H    -6.720921     2.031736     8.156594
H     2.278889    -8.073276    -0.790102
O     2.958748    -8.060208    -1.483520
H     2.736555    -8.774199    -2.097780
H    -2.721722    -3.958420    -6.163699
O    -1.968954    -4.524672    -5.929077
H    -1.696330    -4.233440    -5.030735
H    -5.665717     3.762882     5.333256
O    -6.317544     4.158956     5.947645
H    -6.153996     5.103010     5.935713
H    -1.008149    -7.112488    -3.123020
O    -0.537560    -6.442838    -2.592870
H     0.371262    -6.373486    -2.970553
H     4.405494     2.014802     5.159978
O     3.472765     2.246340     4.986701
H     3.027991     2.255661     5.844863
H     4.082544     4.658139     6.366091
O     4.168114     5.385956     5.746030
H     3.602377     5.146483     4.973539
H     2.748380     3.615617     3.978099
O     2.572348     4.556028     3.814580
H     2.455508     4.657115     2.847797
H     9.396409     0.211478    -0.987842
O     8.588496     0.373784    -0.497137
H     8.410954    -0.445736    -0.005784
H    -2.144819     5.320096     10.690239
O    -2.869249     4.692981     10.917174
H    -3.087792     4.865754     11.833202
H     7.970186    -3.010010     0.403954
O     8.389677    -2.163150     0.661384
H     8.320846    -2.159243     1.623432
H     5.356928     3.663642     3.593624
O     6.007127     3.922673     4.268515
H     5.595815     4.645956     4.764026
H    -4.248514     5.024021     9.815171
O    -4.878338     5.174039     9.089847
H    -5.490497     4.425709     9.086389
H    -6.998678    -3.474762    -3.468505
O    -7.617465    -4.086465    -3.919390
H    -7.093812    -4.528493    -4.619655
H    -0.016759     6.126646     10.820472
O    -0.879519     6.458732     10.567717
H    -0.758719     6.890584     9.703011
H     2.604519     1.497456    -4.049143
O     3.481969     1.850019    -3.806496
H     3.799086     1.334787    -3.034985
H    -7.003231    -0.217111     7.237857
O    -7.512463     0.561813     7.515564
H    -8.133364     0.744822     6.809381
H    -2.742261    -9.871502    -0.797044
O    -2.678188    -8.929792    -0.956195
H    -3.585151    -8.563315    -0.719328
H    -10.049965     3.080488    -4.891803
O    -10.168060     2.162964    -4.611688
H    -10.387764     2.246867    -3.662841
H    -2.088948    -3.023317     4.650639
O    -2.963340    -3.463904     4.717007
H    -2.954746    -4.081369     3.960417
H    -0.190764    -7.981937     2.529507
O     0.633956    -7.770512     2.980006
H     1.354378    -8.067490     2.396354
H     6.680011    -2.378370     6.469619
O     7.127863    -3.085409     6.000542
H     6.500247    -3.822355     5.962357
H    -5.301151    -2.001499     6.968961
O    -5.975304    -1.503599     6.481867
H    -5.956205    -1.880996     5.573038
H     0.863680     3.035602    -7.064775
O     1.781414     2.704426    -7.117061
H     1.769976     1.957222    -7.743339
H    -3.981628     8.758659     6.704483
O    -3.974916     8.756201     5.747132
H    -4.100305     7.828802     5.479120
H    -2.048226     10.316900    -2.697635
O    -2.948791     10.498292    -3.002729
H    -2.874681     11.132516    -3.715149
H     9.393467    -4.062956     4.126915
O     9.109008    -4.741034     4.747330
H     8.678972    -4.268699     5.471107
H    -0.713962    -5.994562    -5.798963
O    -0.011968    -6.561050    -5.462307
H     0.824502    -6.099991    -5.677101
H     1.823256     8.276493     0.719398
O     1.523350     8.598155    -0.159267
H     2.339973     8.636539    -0.686724
H     3.523901     2.931988    -6.602175
O     4.349880     2.641707    -6.189642
H     4.101059     2.367864    -5.281845
H     3.738111     7.125959    -1.167896
O     3.944958     8.061640    -1.380166
H     4.317472     8.005864    -2.272152
H     4.425108    -0.005300    -7.848658
O     4.798597     0.140885    -6.977659
H     4.616199     1.072884    -6.734948
H     6.031418     1.933534    -0.405640
O     6.599914     2.126742    -1.164875
H     7.423647     1.646734    -0.968109
H     6.687852    -8.431322    -1.536389
O     7.326474    -8.220323    -2.270468
H     7.694858    -9.054357    -2.556845
H    -5.282377    -5.784686    -5.383664
O    -5.898133    -5.112390    -5.700530
H    -5.345927    -4.344381    -5.935351
H     0.652517     7.175236     7.651102
O    -0.250450     7.202065     8.006495
H    -0.803032     7.217310     7.187254
H    -8.883294    -2.829344    -4.091874
O    -9.403923    -2.020607    -3.926112
H    -9.115610    -1.355870    -4.555360
H    -2.403933    -5.985994    -2.108383
O    -3.280808    -5.698992    -2.380321
H    -3.464920    -6.073663    -3.266773
H    -2.967707    -5.896661    -5.376493
O    -3.569379    -6.506216    -4.906284
H    -3.088459    -7.326795    -4.738264
H    -1.363594     3.730298    -6.941672
O    -0.824647     2.974317    -6.668709
H    -1.059603     2.189383    -7.219785
H    -0.173090     0.420892    -8.170944
O    -1.070049     0.656455    -7.890743
H    -1.248613     0.132498    -7.093827
H    -10.412850     4.057789    -2.728598
O    -10.482462     3.278926    -2.160993
H    -9.655266     3.252501    -1.648678
H     4.571821     4.081133     1.785594
O     4.364893     3.159950     2.065426
H     5.080588     2.584584     1.782646
H     6.501001     1.399281    -4.148334
O     6.195107     0.775269    -3.455383
H     6.223015     1.270842    -2.611655
H     9.635019    -2.226425    -0.846525
O     9.915040    -2.011326    -1.745040
H     9.116370    -1.672892    -2.191664
H     9.979749    -3.320861    -3.014628
O     9.714660    -3.972803    -3.690363
H     9.324293    -3.465091    -4.412362
H    -7.694644    -8.571079    -1.652128
O    -6.956326    -7.976613    -1.777165
H    -7.334120    -7.063651    -1.768704
H     4.175262     6.082859    -3.757743
O     4.836012     6.783981    -3.669343
H     5.671790     6.329977    -3.529536
H     0.115463    -8.167882    -5.170790
O     0.138659    -9.150738    -5.038732
H     0.292296    -9.514699    -5.910667
H    -2.325006    -8.671003    -2.680650
O    -2.087306    -8.406670    -3.589039
H    -1.439850    -9.025458    -3.945746
H     2.194304    -10.814558    -3.442989
O     2.147992    -9.860020    -3.418556
H     1.364731    -9.589199    -3.947954
H     6.852883     3.332081    -4.501636
O     6.913414     2.653550    -5.201914
H     6.122334     2.787083    -5.746033
H    -3.597962    -3.719580     7.753239
O    -3.705654    -2.931131     7.222728
H    -3.453731    -3.171895     6.305287
H    -0.613432    -3.359046    -6.681819
O     0.017112    -2.627833    -6.686344
H    -0.465943    -1.852236    -6.346913
H     0.497316     0.507665     8.653054
O     0.520032    -0.391912     8.299299
H    -0.424105    -0.619821     8.184045
H    -5.817688     7.372440    -4.227250
O    -6.318292     6.753580    -4.790325
H    -6.607967     6.022818    -4.200276
H    -4.266009     9.107233    -3.232640
O    -4.801939     8.310945    -3.128658
H    -4.396635     7.831482    -2.388059
H    -9.694012     5.802116    -4.637017
O    -10.227981     4.997403    -4.475707
H    -11.107375     5.198422    -4.797775
H     2.744644     6.516956     6.198105
O     1.784107     6.612315     6.291671
H     1.440677     5.699686     6.188122
H     4.803132     8.548865     0.150222
O     5.116506     8.549090     1.072549
H     5.523891     7.685217     1.204449
H     4.157275    -7.424312    -4.282116
O     3.400951    -7.708638    -4.827061
H     3.119386    -8.549865    -4.452469
H     0.360366     8.661676     4.282582
O     1.038446     8.016426     4.057133
H     1.261808     7.524257     4.872903
H     5.246703     4.193211    -3.090845
O     6.207930     4.163121    -3.034231
H     6.413996     3.581556    -2.285782
H    -2.601726    -1.542527     7.611546
O    -2.087612    -0.751849     7.832320
H    -2.712479    -0.124407     8.206561
H    -9.011866     7.942094    -4.134528
O    -8.945777     7.357270    -4.890877
H    -7.988221     7.193406    -5.022584
H     3.522574    -8.979378     1.148675
O     2.845670    -8.346850     1.394984
H     3.319943    -7.542105     1.676591
H     3.576947     8.173365     1.890674
O     2.786647     7.608995     2.000564
H     2.336555     7.845798     2.824300
N     2.963686     0.109535     9.867693
H     2.258973    -0.496875     9.603516
H     3.698125    -0.114028     9.281110
