12

H     3.213124    -2.516247    -8.413626
O     3.135162    -3.017831    -7.583994
H     4.020432    -2.967954    -7.179725
H     4.734214    -1.235931    -9.300695
O     3.815885    -1.166279    -9.635133
H     3.890812    -1.571113    -10.506427
H     6.966011    -1.047780    -8.328567
O     6.367727    -1.753594    -8.612329
H     6.112366    -2.182499    -7.772943
N     5.462315    -3.022959    -11.076301
H     6.061460    -2.786840    -10.351434
H     6.037422    -3.255295    -11.809735
