603

H     0.198635     3.032089    -0.705377
O     0.723262     2.365678    -1.199559
H     1.661155     2.493226    -0.922393
H    -0.081317    -1.302131     3.129392
O     0.311983    -0.602274     2.585478
H    -0.166930     0.211158     2.816683
H    -2.405316     2.412566    -0.560654
O    -2.187823     1.939781     0.260541
H    -2.210575     0.992111     0.034274
H    -4.666437     0.550443     2.153022
O    -4.981750    -0.383391     2.169012
H    -4.480435    -0.860786     1.499821
H     0.061827    -0.306941     0.930008
O    -0.130469    -0.071065     0.001846
H     0.203649     0.827716    -0.115368
H    -0.160011    -3.571729     3.759182
O    -0.439128    -2.741038     4.178291
H     0.205964    -2.569874     4.880850
H    -4.890057     2.533571     1.301319
O    -4.249696     2.124442     1.915535
H    -3.407640     2.105843     1.401712
H    -3.274085     3.978868    -2.173748
O    -2.581919     3.330531    -1.937041
H    -2.145386     3.099985    -2.775311
H    -0.127211    -3.802783     0.484612
O     0.212517    -2.984725     0.901599
H    -0.575383    -2.497884     1.211794
H    -2.382957    -1.534141     2.444335
O    -2.191259    -2.000865     1.604550
H    -2.450580    -1.415902     0.873374
H     2.072588    -1.443522    -1.139620
O     2.303476    -1.695448    -0.221860
H     1.513518    -2.122085     0.161756
H    -1.397949     1.826561     1.885056
O    -1.486469     1.430712     2.762300
H    -1.474102     2.144448     3.425715
H     0.207482    -2.703701    -1.589791
O    -0.546490    -2.090505    -1.647745
H    -0.368990    -1.365181    -1.012360
H    -3.439411    -2.925103    -0.416824
O    -2.719218    -3.417287    -0.832732
H    -2.011311    -2.785181    -1.053387
H     2.766618     0.133121     2.914201
O     2.865386    -0.048278     3.876111
H     2.955581     0.845064     4.279931
H    -3.531939     6.378272    -0.587670
O    -3.291225     7.044157    -1.283565
H    -3.152055     7.886715    -0.808634
H     3.898443     0.586117     1.167135
O     2.947729     0.404822     1.282024
H     2.710930    -0.348322     0.703401
H    -5.782848     0.842941    -1.630205
O    -4.874376     1.167865    -1.484933
H    -4.991568     1.997535    -0.978255
H    -1.216952     5.400791     2.180922
O    -1.840974     4.653294     2.063021
H    -1.921316     4.235329     2.925640
H     3.490254     2.765113     0.403661
O     3.243730     2.721310    -0.535857
H     3.576656     1.878075    -0.884432
H     1.492043    -4.697883    -2.267087
O     1.556174    -3.919917    -1.694938
H     2.351303    -3.459348    -2.045296
H    -0.923013    -0.087924    -2.571953
O    -0.285024     0.563013    -2.892970
H    -0.026304     1.145707    -2.155462
H     1.697590    -4.684443    -0.195370
O     1.804491    -5.321075     0.547571
H     1.340810    -6.132312     0.252106
H    -1.228630    -3.267064    -2.903808
O    -1.047598    -3.951413    -3.561552
H    -0.924796    -4.797355    -3.090006
H    -2.788729     3.314793     4.674436
O    -1.807331     3.312986     4.641896
H    -1.515575     2.911640     5.478691
H     0.954402     5.040150     4.049124
O     0.008345     5.272751     4.099312
H    -0.464397     4.470005     4.357345
H    -1.730946    -4.649227    -0.391489
O    -0.966300    -5.190348    -0.105386
H    -1.315113    -5.876214     0.473265
H    -4.058164     5.909287    -2.511990
O    -4.311737     5.056527    -2.885401
H    -4.154814     5.094307    -3.853120
H    -2.434705    -3.685552     1.913493
O    -2.453186    -4.589221     2.290741
H    -1.513670    -4.827025     2.432695
H    -4.693625    -2.976425    -2.930280
O    -3.839566    -3.214133    -3.330508
H    -3.513538    -4.006371    -2.860491
H     0.331819     1.383302     4.590174
O     0.838693     2.143021     4.256693
H     0.885634     2.802748     4.962943
H    -4.655416    -5.170836    -1.593742
O    -5.357538    -4.817241    -1.020668
H    -5.145054    -5.170500    -0.136076
H     2.329862    -6.484504    -4.053964
O     1.992132    -6.154376    -3.201301
H     2.425328    -6.727574    -2.536724
H     0.469244    -3.380607    -4.025470
O     1.272223    -3.013840    -4.449131
H     0.953395    -2.642930    -5.297577
H     1.957938    -1.748716     2.962944
O     2.114070    -2.679665     2.746462
H     1.428723    -2.894157     2.079130
H    -3.019857    -1.892063    -3.182662
O    -2.585777    -1.001031    -3.151104
H    -3.274685    -0.364311    -3.428210
H    -3.193794     4.979092     1.045390
O    -3.973960     5.353496     0.589328
H    -4.390254     5.911242     1.294612
H     0.869836     2.257634     2.565976
O     0.973146     2.252481     1.594974
H     1.700107     1.628677     1.432993
H     0.187177     5.657115    -0.787793
O     0.708952     6.319267    -1.296718
H     0.851073     7.118939    -0.740724
H     0.337376     7.040440     2.560610
O    -0.023202     6.659853     1.742624
H     0.640399     5.987965     1.483549
H    -2.486395     0.219782     3.315152
O    -2.708230    -0.593700     3.820940
H    -1.948244    -0.632345     4.443212
H    -0.902762     0.561637     6.000774
O    -0.627494     0.041726     5.227115
H     0.085254    -0.561846     5.515249
H     0.705874    -4.990947     1.962898
O     0.163291    -5.099656     2.767206
H     0.307331    -6.020083     3.040198
H    -2.121028    -8.086544     0.430814
O    -1.799222    -7.598308     1.216088
H    -2.585969    -7.285794     1.670544
H    -0.381053     6.862651    -2.353649
O    -1.127917     7.279153    -2.856008
H    -1.918004     7.156760    -2.290287
H    -1.115511     4.312205     0.544510
O    -0.743451     4.371630    -0.352096
H    -1.452207     4.129566    -0.982427
H    -4.415700     2.752095     3.476340
O    -4.415220     2.923577     4.440857
H    -4.499102     2.040877     4.850624
H     2.017127    -3.576812     4.226834
O     1.953127    -4.048481     5.080361
H     2.458643    -3.510643     5.711208
H     4.684605    -3.192866     0.824185
O     4.525416    -3.117918    -0.142631
H     3.666309    -2.641056    -0.227264
H    -2.725801    -0.746469    -1.383162
O    -3.048807    -0.477880    -0.506606
H    -3.851918     0.046720    -0.710420
H    -1.597245    -0.836234    -4.652346
O    -1.050056    -0.576439    -5.425866
H    -0.318613    -0.060850    -5.055389
H     1.796026    -1.717991    -3.396298
O     1.889912    -0.969437    -2.775537
H     1.109658    -0.395312    -2.901643
H     3.657880    -3.118199     2.534386
O     4.617008    -3.347442     2.462372
H     4.671300    -4.307479     2.590288
H     3.420713    -6.117117     3.109928
O     3.777410    -5.917126     2.209890
H     3.040407    -5.572173     1.665858
H    -3.364281     1.547901    -4.136604
O    -4.216538     1.090887    -3.929971
H    -4.396991     1.245086    -2.962987
H    -5.089194     4.152429     0.036643
O    -5.529138     3.286611    -0.059911
H    -6.457283     3.402547    -0.351603
H     6.733230    -1.183114    -1.377076
O     5.960152    -1.032598    -0.826700
H     5.540727    -1.900066    -0.628477
H     4.593855    -3.169912    -2.485992
O     3.726686    -2.999052    -2.903577
H     3.730893    -3.619271    -3.658506
H     4.426563    -2.286950     5.605550
O     4.083342    -2.751594     6.399062
H     4.417903    -3.656845     6.318326
H    -0.762253     6.344554     5.044622
O    -1.359281     6.921059     5.581622
H    -1.372540     7.797558     5.139105
H     4.698191    -0.137078    -1.483677
O     3.930960     0.404977    -1.747782
H     3.239065    -0.196115    -2.077946
H    -0.587274     4.623292    -4.063142
O    -1.368689     5.164370    -4.307820
H    -1.249498     6.022784    -3.847912
H     0.656760     3.205741    -2.683779
O     0.663724     3.581109    -3.593318
H     0.717006     2.816243    -4.176557
H    -5.387611    -5.190729     1.770657
O    -4.690430    -5.786723     1.418231
H    -3.850459    -5.369505     1.688331
H     7.882823    -1.693805    -4.047442
O     7.624217    -1.379727    -3.148401
H     7.137188    -0.536095    -3.306037
H     3.703770    -5.076878    -5.304455
O     4.466020    -4.702785    -4.823642
H     4.849899    -5.413013    -4.276331
H    -3.792195     0.024851     4.907567
O    -4.392979     0.489551     5.539786
H    -5.053911    -0.168038     5.831087
H     3.462068    -5.941837    -0.532942
O     4.334919    -5.695140    -0.850905
H     4.411277    -4.732729    -0.707891
H     5.001226    -0.339710    -4.179248
O     4.464964    -1.050316    -4.569238
H     4.139172    -1.633745    -3.851194
H    -1.158848     1.562729    -3.867396
O    -1.814321     2.197149    -4.225559
H    -1.454367     2.508226    -5.082655
H     4.884027    -6.323571    -2.327314
O     5.218049    -6.649088    -3.192335
H     6.035565    -7.130277    -3.004175
H     8.740121    -5.094857    -2.928087
O     8.048101    -5.511818    -2.370124
H     8.082732    -6.469278    -2.470986
H     2.334881     4.720806     0.425996
O     1.754541     4.704314     1.196288
H     1.397196     3.783958     1.275237
H    -4.422783    -2.628691     4.206862
O    -5.316508    -2.289158     4.003681
H    -5.178850    -1.509013     3.426828
H    -5.850260    -3.193249     1.290837
O    -6.312477    -3.749973     1.960012
H    -6.125672    -3.312867     2.810003
H     1.676366     3.477500     6.837250
O     1.054087     3.992677     6.302269
H     0.270396     4.146122     6.872829
H     4.994048    -2.164543     3.600168
O     5.014133    -1.445478     4.263434
H     4.202348    -0.889369     4.105576
H     2.382932    -5.570619     4.823339
O     2.763213    -6.454800     4.564750
H     2.018269    -7.036361     4.390338
H     2.260761    -4.521529    -6.806990
O     2.090728    -5.009076    -5.991138
H     1.825344    -4.317509    -5.336412
H     6.436824    -4.103341    -0.515894
O     7.189891    -4.505693    -0.051809
H     7.697658    -4.929289    -0.771735
H    -1.736060     4.499619     7.671352
O    -0.837529     4.598510     8.057474
H    -0.656949     5.557722     8.080866
H    -5.202710     5.711008    -5.615428
O    -4.547882     4.981870    -5.673812
H    -3.786015     5.332347    -6.168065
H     3.287042    -2.532066    -8.454364
O     3.197519    -3.064724    -7.653323
H     4.073467    -3.041266    -7.222874
H    -0.660719     8.825475    -2.312614
O    -0.537838     9.654753    -1.795799
H     0.223010     9.480875    -1.216864
H     2.058072    -0.905608     5.191548
O     1.485265    -1.431273     5.779125
H     1.577699    -1.084513     6.675925
H     5.206931    -2.029325    -5.709759
O     5.553780    -2.796087    -6.230686
H     5.280009    -3.585580    -5.712313
H     5.687328    -5.209104     4.673769
O     5.164617    -5.123261     5.500032
H     4.442992    -5.755153     5.414580
H    -3.984220     1.155482     6.978802
O    -3.792909     1.632444     7.822258
H    -4.669325     2.018225     8.081753
H    -1.854271     9.616061    -0.781229
O    -2.714680     9.490487    -0.307250
H    -3.326016     10.117929    -0.696465
H    -5.946917     4.694931    -2.970448
O    -6.855383     4.579694    -3.313508
H    -6.763864     3.864953    -3.980492
H     0.092451    -7.064550    -1.158557
O     0.556085    -7.499746    -0.410007
H    -0.123786    -7.693722     0.238426
H    -7.637816     3.792480    -2.010373
O    -7.898694     3.205059    -1.270544
H    -7.755724     2.296382    -1.611847
H     3.962969    -0.883638     6.968171
O     3.971928     0.080515     6.958262
H     4.784530     0.369754     6.526813
H     2.255340     5.796138    -1.207308
O     3.190962     5.504345    -1.092316
H     3.368492     4.962865    -1.884292
H     6.546276    -5.928436     0.661460
O     6.177188    -6.664210     1.195535
H     5.272542    -6.386715     1.421591
H    -3.879669     4.739881     7.748402
O    -3.312082     4.276386     7.090755
H    -3.505840     3.333087     7.201760
H     5.758574    -7.944800     0.128759
O     5.471524    -8.632646    -0.508361
H     4.642440    -8.307829    -0.903435
H    -0.568614     2.052054     7.667436
O    -1.201062     1.986992     6.931782
H    -2.069980     1.845612     7.327508
H    -6.391709    -0.120205     1.037516
O    -6.707690    -0.207083     0.123848
H    -7.626867    -0.476451     0.136976
H    -5.375673    -3.061355    -0.614945
O    -5.123163    -2.359994     0.011500
H    -5.692708    -1.586501    -0.176503
H     4.313404     5.579727     0.294837
O     4.646626     5.681865     1.200074
H     3.951423     6.192085     1.651323
H    -9.044328    -1.745294    -2.285158
O    -8.498248    -1.543612    -1.497627
H    -8.626497    -2.279976    -0.860529
H    -5.727261     3.278422    -5.710289
O    -6.152352     2.711104    -5.056884
H    -5.420353     2.194868    -4.659235
H     3.180297    -0.890255    -5.676907
O     2.324951    -1.009542    -6.144295
H     2.411352    -1.860004    -6.614805
H     8.116123    -1.355968    -6.043783
O     8.123898    -2.219480    -5.586397
H     7.267858    -2.619642    -5.837046
H     7.623541     0.983448    -6.326408
O     7.434622     0.135406    -6.740295
H     6.453345     0.084978    -6.776257
H    -7.864468    -3.691468     0.903921
O    -8.543318    -3.585891     0.219891
H    -8.443716    -4.344866    -0.382031
H    -2.412627     8.739955     1.257364
O    -2.261739     8.152846     2.011428
H    -1.491853     7.599027     1.789524
H    -4.451402     6.441542     3.461561
O    -4.620481     6.867006     2.604608
H    -3.856764     7.452552     2.465446
H     3.400553     3.444562    -3.600834
O     3.245130     4.413795    -3.510432
H     2.280056     4.476627    -3.616969
H    -6.112425    -1.603186    -3.478749
O    -6.197551    -2.181235    -2.692990
H    -6.980534    -1.871830    -2.185070
H     6.459759     1.056548     4.721231
O     6.065285     1.596208     5.423227
H     6.253209     2.514554     5.131117
H     1.382991     1.718129    -5.846503
O     1.174920     1.127181    -5.094758
H     1.534554     0.260671    -5.360167
H    -2.502934     2.977885     10.454949
O    -2.290336     2.069938     10.183142
H    -2.887200     1.869242     9.450333
H     7.620596    -0.493761     3.068211
O     6.870600     0.082438     3.235380
H     6.177784    -0.517184     3.615103
H    -5.662313    -8.053231    -0.719713
O    -4.927868    -8.121384    -0.072630
H    -4.931997    -7.303425     0.448346
H    -5.253196    -0.156278    -4.754565
O    -5.864237    -0.874117    -4.997480
H    -6.709821    -0.426864    -5.169808
H     1.858850    -0.210051    -7.542437
O     1.643870     0.256384    -8.385881
H     2.241418    -0.128397    -9.032897
H     4.874191    -1.398177    -9.320825
O     3.950252    -1.166233    -9.604904
H     3.930489    -1.293410    -10.552814
H     7.556205    -2.564836     4.186757
O     7.703948    -2.602058     3.227441
H     7.210833    -3.393274     2.956165
H     6.714426    -5.890761     2.674632
O     6.775635    -5.214577     3.374843
H     7.651054    -5.299289     3.793699
H    -1.828005     8.953908     3.461490
O    -1.581113     9.260043     4.359584
H    -2.430370     9.392526     4.814246
H    -7.393168     1.536121    -5.267094
O    -7.978248     0.793480    -5.031801
H    -8.874131     1.201838    -4.958206
H     6.928564    -1.092333    -8.420801
O     6.345460    -1.812567    -8.684178
H     6.117619    -2.262017    -7.851945
H    -1.711481     6.225439    -7.140692
O    -2.044855     5.409617    -6.758830
H    -1.698750     5.393108    -5.803404
H    -0.011570     3.324024     8.996279
O     0.185500     2.404734     9.253091
H    -0.613469     2.141080     9.758830
H     6.754880    -2.781989    -2.718581
O     6.223830    -3.525762    -2.377511
H     6.692529    -4.336968    -2.622332
H    -4.075631    -3.074817    -4.969996
O    -4.225203    -2.966365    -5.935644
H    -4.773431    -2.172767    -5.994765
H     1.968094     2.196158     8.441478
O     2.632719     2.307676     7.751989
H     3.054868     1.437209     7.638085
H    -6.910569    -5.201414    -1.418073
O    -7.825268    -5.472263    -1.665111
H    -7.957486    -5.069200    -2.548327
H    -3.836762     5.265627     5.664086
O    -3.803278     6.033588     5.072719
H    -2.869349     6.327738     5.167255
H    -7.887124     0.089418    -1.996705
O    -7.397691     0.813372    -2.409465
H    -7.619298     0.795428    -3.364982
H     5.833279     0.131819     0.394638
O     5.611023     0.854421     1.014106
H     6.120270     0.660207     1.827922
H    -6.225671     3.323001     7.364014
O    -6.098689     2.805888     8.193507
H    -6.698736     2.044328     8.105449
H     2.274186    -8.072733    -0.854160
O     2.952168    -8.061362    -1.549514
H     2.727793    -8.776189    -2.161943
H    -2.745048    -3.966942    -6.215284
O    -1.987903    -4.530249    -5.985431
H    -1.714463    -4.240019    -5.086911
H    -5.652552     3.770579     5.276754
O    -6.301618     4.168137     5.893380
H    -6.138716     5.112253     5.877756
H    -1.019798    -7.116835    -3.177176
O    -0.547277    -6.446326    -2.649909
H     0.360068    -6.377150    -3.030790
H     4.435817     2.024720     5.108340
O     3.494485     2.264399     4.986841
H     3.109032     2.281408     5.868217
H     4.099437     4.666993     6.276770
O     4.181454     5.396152     5.657668
H     3.614227     5.154847     4.886720
H     2.756777     3.624479     3.898655
O     2.580061     4.564453     3.731009
H     2.460957     4.661462     2.764421
H     9.390891     0.210512    -1.085217
O     8.584177     0.374182    -0.593069
H     8.407786    -0.443828    -0.098762
H    -2.114611     5.337429     10.619567
O    -2.836641     4.709058     10.851271
H    -3.055956     4.887755     11.765928
H     7.968568    -3.007938     0.315724
O     8.389680    -2.161011     0.570079
H     8.322930    -2.154787     1.532333
H     5.363310     3.671097     3.503368
O     6.019359     3.937730     4.169258
H     5.605961     4.655868     4.670325
H    -4.222071     5.038027     9.752266
O    -4.854584     5.188272     9.029618
H    -5.466304     4.439518     9.027270
H    -7.012027    -3.475842    -3.512539
O    -7.630967    -4.092900    -3.956514
H    -7.110267    -4.533641    -4.659541
H     0.013689     6.145764     10.740474
O    -0.850570     6.477295     10.492251
H    -0.734101     6.906294     9.625240
H     2.592218     1.492168    -4.123533
O     3.469564     1.846319    -3.884566
H     3.789822     1.331653    -3.113578
H    -6.982913    -0.205923     7.191567
O    -7.491813     0.572866     7.470649
H    -8.114227     0.755466     6.765648
H    -2.747166    -9.872086    -0.841910
O    -2.683350    -8.930740    -1.003189
H    -3.589468    -8.563453    -0.763698
H    -10.068595     3.073281    -4.929352
O    -10.191829     2.156919    -4.648536
H    -10.404791     2.241149    -3.698645
H    -2.076109    -3.015739     4.593769
O    -2.950731    -3.456246     4.663752
H    -2.944456    -4.074357     3.907687
H    -0.184729    -7.977020     2.473217
O     0.641483    -7.766434     2.921407
H     1.360004    -8.063037     2.335293
H     6.696153    -2.365732     6.378683
O     7.145976    -3.076297     5.916707
H     6.515841    -3.811030     5.878819
H    -5.282488    -1.990901     6.919487
O    -5.958451    -1.493413     6.434516
H    -5.941271    -1.871341     5.525618
H     0.930607     3.055046    -7.138423
O     1.828357     2.681738    -7.220968
H     1.767930     1.922415    -7.831183
H    -3.964827     8.768734     6.635044
O    -3.961580     8.765466     5.677683
H    -4.086787     7.837603     5.410936
H    -2.061046     10.313400    -2.774183
O    -2.962067     10.493431    -3.078826
H    -2.889506     11.129136    -3.790045
H     9.402641    -4.054672     4.035240
O     9.122766    -4.732010     4.658617
H     8.692292    -4.258772     5.381618
H    -0.734933    -6.001572    -5.855310
O    -0.031699    -6.568588    -5.522001
H     0.804029    -6.107407    -5.738911
H     1.820117     8.278793     0.632194
O     1.518100     8.599142    -0.246434
H     2.333608     8.636465    -0.775631
H     3.526420     2.913886    -6.684277
O     4.352102     2.632586    -6.263297
H     4.097089     2.359755    -5.356923
H     3.730370     7.125823    -1.258737
O     3.936412     8.061110    -1.473965
H     4.306893     8.003161    -2.366629
H     4.398474    -0.011944    -7.930720
O     4.773817     0.131507    -7.060206
H     4.599049     1.064769    -6.815352
H     6.027403     1.933930    -0.494985
O     6.593067     2.125906    -1.256848
H     7.417551     1.646616    -1.061644
H     6.680410    -8.432055    -1.613040
O     7.316949    -8.222696    -2.349556
H     7.682906    -9.057609    -2.636438
H    -5.300930    -5.789439    -5.428323
O    -5.917489    -5.118553    -5.746300
H    -5.366519    -4.349183    -5.980663
H     0.672264     7.186712     7.569593
O    -0.229514     7.215073     7.928416
H    -0.784416     7.228387     7.110477
H    -8.897649    -2.833596    -4.129402
O    -9.421447    -2.027394    -3.962333
H    -9.130819    -1.358222    -4.586232
H    -2.412067    -5.989814    -2.159299
O    -3.290328    -5.704329    -2.428169
H    -3.477076    -6.078582    -3.314014
H    -2.985990    -5.903827    -5.427277
O    -3.585609    -6.513159    -4.954571
H    -3.103711    -7.333047    -4.786272
H    -1.163228     3.811572    -6.955574
O    -0.713844     3.015656    -6.620763
H    -0.926680     2.235543    -7.194838
H    -0.173336     0.451013    -8.209488
O    -1.056181     0.697127    -7.879550
H    -1.168827     0.171658    -7.059766
H    -10.423449     4.054676    -2.769085
O    -10.493695     3.280120    -2.195846
H    -9.661756     3.250596    -1.691316
H     4.575257     4.084919     1.696629
O     4.366192     3.164363     1.975658
H     5.082290     2.587840     1.696228
H     6.487620     1.394110    -4.237239
O     6.181259     0.770671    -3.543796
H     6.211908     1.266653    -2.700297
H     9.629562    -2.226413    -0.941109
O     9.906921    -2.013216    -1.840967
H     9.106949    -1.674862    -2.285369
H     9.967469    -3.323991    -3.108632
O     9.701139    -3.976751    -3.783169
H     9.307868    -3.469991    -4.504247
H    -7.702381    -8.572867    -1.682362
O    -6.963692    -7.979778    -1.811600
H    -7.340538    -7.066113    -1.804338
H     4.160321     6.077318    -3.847676
O     4.820758     6.779424    -3.764662
H     5.657029     6.326435    -3.624291
H     0.096906    -8.174832    -5.227166
O     0.121604    -9.157517    -5.094355
H     0.272224    -9.522073    -5.966552
H    -2.335668    -8.674010    -2.728261
O    -2.099857    -8.412005    -3.637886
H    -1.453587    -9.031952    -3.994515
H     2.181486    -10.818571    -3.502180
O     2.136325    -9.863928    -3.480188
H     1.351088    -9.593697    -4.006993
H     6.842315     3.325764    -4.590564
O     6.903939     2.646359    -5.289767
H     6.110050     2.776809    -5.831267
H    -3.575095    -3.709245     7.700439
O    -3.688434    -2.921830     7.169616
H    -3.436861    -3.161974     6.251642
H    -0.638893    -3.370457    -6.739972
O    -0.011870    -2.635837    -6.755936
H    -0.491596    -1.864830    -6.404054
H     0.630185     0.475892     8.730099
O     0.638420    -0.239955     8.090712
H    -0.283772    -0.528905     8.002538
H    -5.832826     7.353710    -4.302714
O    -6.332063     6.729159    -4.860285
H    -6.625952     6.005769    -4.260942
H    -4.280901     9.100816    -3.302985
O    -4.812321     8.300972    -3.203639
H    -4.411870     7.825744    -2.457153
H    -9.711169     5.796863    -4.684786
O    -10.245095     4.993753    -4.517647
H    -11.125193     5.192132    -4.839333
H     2.759639     6.526868     6.111123
O     1.799489     6.623661     6.207977
H     1.455877     5.710139     6.106907
H     4.799720     8.550144     0.053891
O     5.116579     8.552558     0.974954
H     5.522701     7.688173     1.107900
H     4.142093    -7.429094    -4.352276
O     3.384849    -7.714538    -4.895436
H     3.103710    -8.554793    -4.518345
H     0.369371     8.668463     4.200317
O     1.047828     8.024086     3.973646
H     1.273394     7.532010     4.789055
H     5.234638     4.188861    -3.181028
O     6.195935     4.160824    -3.125764
H     6.404131     3.579304    -2.377750
H    -2.587864    -1.531206     7.550769
O    -2.077791    -0.737730     7.770619
H    -2.704221    -0.110886     8.142781
H    -9.023283     7.935961    -4.190500
O    -8.960478     7.352542    -4.948216
H    -8.004394     7.182893    -5.081362
H     3.525629    -8.975834     1.082078
O     2.848557    -8.344045     1.329744
H     3.322565    -7.538244     1.609309
H     3.578316     8.177910     1.798875
O     2.787612     7.614679     1.910536
H     2.340597     7.850885     2.736143
N    -3.838119     1.914442    -7.074579
H    -3.663183     2.851698    -7.203442
H    -3.218910     1.473195    -7.667377
