603

H     0.224775     3.021485    -0.665019
O     0.745532     2.352335    -1.159797
H     1.684788     2.478920    -0.886980
H    -0.059490    -1.322425     3.156890
O     0.336032    -0.622534     2.614907
H    -0.139637     0.192364     2.848252
H    -2.375500     2.407150    -0.520359
O    -2.165127     1.934029     0.302270
H    -2.184264     0.986833     0.075239
H    -4.641793     0.544455     2.196236
O    -4.960815    -0.388457     2.208251
H    -4.458141    -0.865726     1.539966
H     0.081968    -0.320606     0.959725
O    -0.114833    -0.082736     0.033193
H     0.224685     0.814179    -0.085646
H    -0.141936    -3.594579     3.780049
O    -0.417906    -2.764491     4.202595
H     0.229101    -2.597178     4.903950
H    -4.860916     2.530056     1.348211
O    -4.222196     2.116926     1.961465
H    -3.379766     2.098982     1.448107
H    -3.224223     3.899646    -2.192716
O    -2.488374     3.299674    -1.963959
H    -2.131004     3.013538    -2.824572
H    -0.116549    -3.815820     0.505111
O     0.226257    -3.000410     0.924796
H    -0.559656    -2.512055     1.237492
H    -2.361590    -1.547472     2.477575
O    -2.173976    -2.012702     1.635923
H    -2.432203    -1.423964     0.907545
H     2.085429    -1.457228    -1.117513
O     2.317836    -1.712963    -0.200922
H     1.527588    -2.138555     0.183018
H    -1.366313     1.813995     1.925703
O    -1.458624     1.414035     2.800728
H    -1.441663     2.125336     3.466987
H     0.217500    -2.711575    -1.566606
O    -0.536759    -2.098183    -1.619138
H    -0.354849    -1.372943    -0.984624
H    -3.427383    -2.926855    -0.384717
O    -2.711326    -3.420034    -0.806335
H    -2.000292    -2.790427    -1.024851
H     2.791312     0.100528     2.940061
O     2.893053    -0.085890     3.901430
H     2.984448     0.809601     4.303276
H    -3.496710     6.379619    -0.518855
O    -3.258040     7.042690    -1.218449
H    -3.112920     7.886581    -0.746786
H     3.921277     0.560868     1.190897
O     2.971374     0.378857     1.310113
H     2.730842    -0.369580     0.726947
H    -5.763753     0.849897    -1.588483
O    -4.852286     1.174375    -1.462447
H    -4.960477     2.002510    -0.949679
H    -1.177787     5.385961     2.229463
O    -1.805217     4.640469     2.111863
H    -1.882274     4.220746     2.973848
H     3.516095     2.742631     0.434690
O     3.269307     2.701781    -0.504783
H     3.599003     1.858806    -0.856606
H     1.494175    -4.707358    -2.252758
O     1.561661    -3.931689    -1.677804
H     2.356653    -3.471518    -2.029364
H    -0.907787    -0.088274    -2.539193
O    -0.271562     0.562441    -2.862665
H    -0.009379     1.143511    -2.125230
H     1.704639    -4.700372    -0.181463
O     1.811089    -5.339217     0.559874
H     1.344922    -6.148463     0.262742
H    -1.220881    -3.267806    -2.876654
O    -1.049462    -3.950651    -3.538512
H    -0.925089    -4.798647    -3.071037
H    -2.750488     3.296653     4.722398
O    -1.769487     3.289415     4.686496
H    -1.475934     2.887993     5.522181
H     0.998131     5.017916     4.095785
O     0.050740     5.247568     4.144309
H    -0.420175     4.445201     4.404499
H    -1.725106    -4.656122    -0.370174
O    -0.961088    -5.199483    -0.086820
H    -1.310171    -5.886489     0.490314
H    -3.889169     5.836341    -2.574224
O    -4.242352     5.003889    -2.905760
H    -4.088135     4.970830    -3.874062
H    -2.420812    -3.697202     1.939959
O    -2.440866    -4.602069     2.314276
H    -1.501642    -4.842791     2.453126
H    -4.689230    -2.972968    -2.891067
O    -3.837899    -3.207478    -3.298613
H    -3.508479    -4.002613    -2.834963
H     0.362005     1.358078     4.626244
O     0.872355     2.114830     4.293335
H     0.924370     2.775857     4.998142
H    -4.652846    -5.166153    -1.567329
O    -5.353159    -4.812061    -0.992174
H    -5.139968    -5.168417    -0.108880
H     2.322833    -6.490925    -4.046165
O     1.987810    -6.162918    -3.191547
H     2.421410    -6.739146    -2.529951
H     0.470821    -3.383566    -4.004277
O     1.274094    -3.018111    -4.427640
H     0.954481    -2.643984    -5.275018
H     1.978737    -1.774372     2.983851
O     2.132362    -2.705432     2.765861
H     1.445522    -2.916346     2.098700
H    -3.006330    -1.805945    -3.201896
O    -2.581692    -0.920787    -3.135752
H    -3.235962    -0.272696    -3.453193
H    -3.159294     4.971739     1.101127
O    -3.941276     5.346966     0.648345
H    -4.353669     5.905180     1.356026
H     0.902576     2.237768     2.602845
O     0.999425     2.230516     1.631298
H     1.726301     1.607972     1.466073
H     0.221220     5.647579    -0.739200
O     0.743023     6.308870    -1.248374
H     0.888712     7.107371    -0.691026
H     0.380599     7.019727     2.612632
O     0.015901     6.641723     1.794702
H     0.678635     5.970489     1.531831
H    -2.459083     0.205041     3.351970
O    -2.682512    -0.609837     3.855294
H    -1.922009    -0.652342     4.476328
H    -0.869946     0.535545     6.034669
O    -0.598318     0.013779     5.260778
H     0.112264    -0.592386     5.545407
H     0.716314    -5.010545     1.977949
O     0.175739    -5.120009     2.783617
H     0.317457    -6.041911     3.052976
H    -2.121696    -8.094398     0.443602
O    -1.797055    -7.608892     1.229467
H    -2.582103    -7.296219     1.686709
H    -0.348295     6.858683    -2.303608
O    -1.094583     7.280547    -2.801806
H    -1.883904     7.155880    -2.236947
H    -1.084352     4.301513     0.591705
O    -0.713130     4.361657    -0.305260
H    -1.421856     4.123839    -0.936529
H    -4.381878     2.741812     3.525225
O    -4.379548     2.909929     4.490233
H    -4.464305     2.026346     4.897493
H     2.035958    -3.606574     4.242252
O     1.972626    -4.080702     5.094741
H     2.478735    -3.545904     5.726775
H     4.697604    -3.218474     0.836036
O     4.536100    -3.141096    -0.129789
H     3.678103    -2.661624    -0.211963
H    -2.709600    -0.749345    -1.342250
O    -3.035340    -0.480954    -0.466698
H    -3.834422     0.047973    -0.671468
H    -1.607570    -0.758535    -4.623032
O    -1.100546    -0.542977    -5.427001
H    -0.389350     0.051771    -5.141517
H     1.803180    -1.723756    -3.374522
O     1.898306    -0.978702    -2.749743
H     1.122192    -0.399158    -2.878582
H     3.675101    -3.146156     2.548753
O     4.633937    -3.376615     2.476869
H     4.685760    -4.337725     2.598498
H     3.431385    -6.146863     3.115259
O     3.786929    -5.943739     2.215704
H     3.049256    -5.596815     1.673629
H    -3.328236     1.616801    -4.162671
O    -4.173932     1.147632    -3.971721
H    -4.390024     1.292435    -3.014595
H    -5.054741     4.150032     0.089015
O    -5.495852     3.285286    -0.016083
H    -6.426295     3.407850    -0.296066
H     6.745508    -1.208081    -1.365982
O     5.975895    -1.057640    -0.810640
H     5.553964    -1.924461    -0.615626
H     4.599624    -3.187352    -2.474025
O     3.731525    -3.013188    -2.888206
H     3.732246    -3.630192    -3.645843
H     4.453451    -2.333303     5.614894
O     4.111520    -2.793991     6.411996
H     4.440028    -3.701568     6.329630
H    -0.712261     6.319710     5.096425
O    -1.309208     6.894890     5.635817
H    -1.319296     7.773243     5.196762
H     4.713037    -0.157712    -1.464459
O     3.946746     0.387177    -1.724698
H     3.252140    -0.210361    -2.055857
H    -0.719483     4.522530    -4.019944
O    -1.501110     5.067682    -4.226322
H    -1.347236     5.933164    -3.801836
H     0.680814     3.196596    -2.644923
O     0.688109     3.574458    -3.552963
H     0.732516     2.811868    -4.139736
H    -5.378382    -5.193483     1.798821
O    -4.683621    -5.789638     1.442048
H    -3.841780    -5.376185     1.712063
H     7.888417    -1.714570    -4.038658
O     7.632520    -1.402286    -3.138026
H     7.147724    -0.556748    -3.292784
H     3.697845    -5.082886    -5.296272
O     4.462012    -4.712645    -4.815370
H     4.845203    -5.425845    -4.271641
H    -3.762281     0.008274     4.946870
O    -4.360010     0.472303     5.582239
H    -5.022370    -0.184097     5.872913
H     3.464880    -5.961348    -0.527483
O     4.338440    -5.716011    -0.844443
H     4.416819    -4.753984    -0.700210
H     5.010665    -0.352101    -4.159678
O     4.473442    -1.061818    -4.549989
H     4.146391    -1.645231    -3.832756
H    -1.156813     1.571540    -3.924492
O    -1.806404     2.194005    -4.308429
H    -1.448928     2.526752    -5.154339
H     4.882355    -6.341585    -2.324661
O     5.213202    -6.665826    -3.191275
H     6.030232    -7.149191    -3.006695
H     8.739922    -5.120397    -2.930492
O     8.048595    -5.537331    -2.371512
H     8.080250    -6.494513    -2.475906
H     2.365886     4.701512     0.464294
O     1.788174     4.683286     1.236419
H     1.428515     3.764774     1.313572
H    -4.400994    -2.641103     4.239810
O    -5.294267    -2.298919     4.039374
H    -5.156289    -1.517121     3.464846
H    -5.836640    -3.193538     1.326656
O    -6.299679    -3.750793     1.994744
H    -6.109375    -3.317071     2.845720
H     1.599912     3.330209     6.900793
O     1.045440     3.918677     6.367768
H     0.250195     4.077955     6.927227
H     5.018192    -2.196892     3.615620
O     5.036990    -1.480585     4.282851
H     4.224093    -0.925005     4.121214
H     2.398134    -5.603646     4.832430
O     2.776286    -6.487543     4.571407
H     2.029764    -7.066870     4.396148
H     2.252817    -4.520977    -6.793465
O     2.083815    -5.010192    -5.978292
H     1.821407    -4.319350    -5.321527
H     6.444889    -4.130004    -0.511166
O     7.197611    -4.535554    -0.049185
H     7.702978    -4.958373    -0.771389
H    -1.685379     4.472089     7.719258
O    -0.786381     4.564751     8.105745
H    -0.599585     5.523596     8.129603
H    -5.095060     5.706313    -5.571602
O    -4.489611     4.941161    -5.594415
H    -3.732408     5.154858    -6.160746
H     3.279972    -2.532149    -8.437864
O     3.192153    -3.065970    -7.637316
H     4.069398    -3.044506    -7.209675
H    -0.623847     8.822161    -2.253810
O    -0.498264     9.649499    -1.734047
H     0.263930     9.471947    -1.157849
H     2.083211    -0.937438     5.213794
O     1.515966    -1.466802     5.804044
H     1.602371    -1.119020     6.700743
H     5.209244    -2.038772    -5.695641
O     5.553018    -2.805083    -6.219199
H     5.277547    -3.595183    -5.702834
H     5.703717    -5.248991     4.676941
O     5.182773    -5.163211     5.504710
H     4.460131    -5.794053     5.419283
H    -3.946513     1.133527     7.022251
O    -3.751725     1.606269     7.867287
H    -4.626500     1.994887     8.129262
H    -1.811526     9.610377    -0.718417
O    -2.672073     9.485035    -0.243866
H    -3.281835     10.116153    -0.629591
H    -5.924266     4.699796    -2.914743
O    -6.833745     4.583340    -3.257829
H    -6.745897     3.881972    -3.936250
H     0.090954    -7.073591    -1.148009
O     0.555068    -7.511758    -0.401446
H    -0.124024    -7.706248     0.247616
H    -7.614452     3.804094    -1.948993
O    -7.876599     3.216454    -1.209691
H    -7.736002     2.308075    -1.550961
H     3.863654    -1.170597     7.109617
O     3.924985    -0.201588     7.170331
H     4.535378     0.053638     6.468374
H     2.287416     5.782101    -1.164370
O     3.222440     5.486381    -1.053254
H     3.395978     4.947599    -1.847798
H     6.552213    -5.958681     0.660994
O     6.182883    -6.694429     1.195074
H     5.278826    -6.416070     1.422188
H    -3.830083     4.715939     7.801546
O    -3.265332     4.251907     7.141757
H    -3.462610     3.309275     7.250272
H     5.758173    -7.971756     0.124599
O     5.467717    -8.657122    -0.513416
H     4.638829    -8.329051    -0.906213
H    -0.527799     2.022841     7.704632
O    -1.161405     1.953801     6.971171
H    -2.030448     1.818221     7.368909
H    -6.365920    -0.116662     1.078445
O    -6.687557    -0.198901     0.165967
H    -7.607224    -0.466421     0.184969
H    -5.365209    -3.059195    -0.578847
O    -5.110153    -2.359139     0.048159
H    -5.678358    -1.584247    -0.137051
H     4.344740     5.558553     0.331146
O     4.681995     5.651972     1.235735
H     3.992334     6.163942     1.694417
H    -9.035892    -1.727896    -2.236320
O    -8.486313    -1.529285    -1.450737
H    -8.614727    -2.266563    -0.814088
H    -5.507373     3.484518    -5.506200
O    -6.025875     2.774195    -5.092256
H    -5.360220     2.186576    -4.680200
H     3.186263    -0.897857    -5.653151
O     2.329387    -1.015156    -6.117825
H     2.412109    -1.863518    -6.592843
H     8.118639    -1.371470    -6.034045
O     8.125213    -2.236169    -5.578794
H     7.267730    -2.633532    -5.829185
H     7.630264     0.970650    -6.310763
O     7.438771     0.123246    -6.724714
H     6.457238     0.075995    -6.760081
H    -7.853391    -3.684092     0.942236
O    -8.532480    -3.574442     0.259010
H    -8.436973    -4.333062    -0.344114
H    -2.366783     8.730568     1.319333
O    -2.218103     8.139568     2.070722
H    -1.448272     7.585833     1.847597
H    -4.406469     6.431369     3.521952
O    -4.577418     6.858633     2.666243
H    -3.812707     7.443045     2.526320
H     3.420168     3.432792    -3.568752
O     3.269618     4.402178    -3.474101
H     2.304691     4.469811    -3.579401
H    -6.109030    -1.594079    -3.428656
O    -6.192366    -2.174620    -2.645626
H    -6.974762    -1.866081    -2.135306
H     6.590894     1.243287     4.594422
O     6.207371     1.864794     5.238591
H     6.361301     2.753119     4.818597
H     1.373525     1.717875    -5.813596
O     1.178568     1.121157    -5.060073
H     1.539393     0.257645    -5.331860
H    -2.452089     2.943176     10.500237
O    -2.242373     2.035243     10.225324
H    -2.842014     1.838493     9.493453
H     7.640856    -0.523738     3.085122
O     6.896617     0.056177     3.267043
H     6.203020    -0.544899     3.640250
H    -5.665601    -8.048656    -0.698884
O    -4.929934    -8.120292    -0.053649
H    -4.931028    -7.303875     0.469682
H    -5.168869    -0.107575    -4.700253
O    -5.788003    -0.817454    -4.940460
H    -6.625292    -0.373269    -5.136647
H     1.894391    -0.201462    -7.509969
O     1.692912     0.272087    -8.352884
H     2.267682    -0.133597    -9.007372
H     4.871293    -1.401283    -9.305024
O     3.946284    -1.169797    -9.585516
H     3.924541    -1.285637    -10.534770
H     7.577846    -2.608516     4.194303
O     7.722076    -2.640749     3.234567
H     7.228707    -3.431003     2.960732
H     6.723963    -5.926710     2.673881
O     6.789002    -5.253108     3.376603
H     7.665554    -5.342164     3.792110
H    -1.777360     8.936147     3.523314
O    -1.529618     9.239360     4.421952
H    -2.377905     9.372368     4.877849
H    -7.377956     1.585535    -5.229762
O    -7.954348     0.842418    -4.985207
H    -8.854920     1.244311    -4.907292
H     6.927121    -1.097798    -8.407552
O     6.343173    -1.817133    -8.671499
H     6.115259    -2.267612    -7.839911
H    -1.655098     6.247098    -7.001664
O    -2.054258     5.422131    -6.729029
H    -1.804993     5.289432    -5.765762
H     0.037476     3.284862     9.037413
O     0.230632     2.363398     9.291715
H    -0.570567     2.103334     9.797446
H     6.760627    -2.803426    -2.710718
O     6.229145    -3.546842    -2.369295
H     6.694850    -4.358442    -2.618547
H    -4.077065    -3.064292    -4.934816
O    -4.232132    -2.949791    -5.899232
H    -4.777566    -2.155322    -5.953441
H     1.913172     2.100820     8.603323
O     2.611947     2.103339     7.930525
H     2.849081     1.164333     7.777456
H    -6.908041    -5.191239    -1.386403
O    -7.824539    -5.458224    -1.631165
H    -7.958361    -5.053760    -2.513248
H    -3.789590     5.247988     5.719224
O    -3.755636     6.017024     5.129630
H    -2.820353     6.309021     5.222700
H    -7.872291     0.101854    -1.947028
O    -7.381077     0.824688    -2.360134
H    -7.610839     0.815927    -3.313054
H     5.854426     0.103428     0.413249
O     5.635554     0.823742     1.036692
H     6.145861     0.626840     1.848452
H    -6.180772     3.306308     7.418784
O    -6.052973     2.785778     8.246229
H    -6.656065     2.026768     8.157423
H     2.270870    -8.088589    -0.850681
O     2.947550    -8.076781    -1.547230
H     2.719980    -8.789037    -2.161529
H    -2.748271    -3.954477    -6.191404
O    -1.995789    -4.523071    -5.961523
H    -1.717497    -4.233492    -5.064366
H    -5.611615     3.758237     5.331680
O    -6.258455     4.155224     5.950973
H    -6.092092     5.098832     5.938967
H    -1.026143    -7.116784    -3.164635
O    -0.550992    -6.449287    -2.635904
H     0.355863    -6.381363    -3.018462
H     4.507550     2.064460     5.000810
O     3.538866     2.226791     4.923252
H     3.197602     2.231548     5.823963
H     4.493369     5.067899     6.118264
O     4.377738     5.756891     5.437141
H     3.795383     5.354028     4.751618
H     2.786884     3.668771     3.830066
O     2.619007     4.615246     3.689116
H     2.438433     4.715153     2.726477
H     9.407194     0.178151    -1.075493
O     8.603739     0.342466    -0.578197
H     8.425667    -0.478001    -0.088708
H    -2.055651     5.300705     10.670356
O    -2.778362     4.672754     10.902468
H    -2.995989     4.851152     11.817593
H     7.980808    -3.041130     0.320163
O     8.404373    -2.196025     0.576638
H     8.340024    -2.192550     1.538930
H     5.492483     3.875086     3.340052
O     6.222188     4.174578     3.910772
H     5.814151     4.906878     4.411996
H    -4.166312     5.009385     9.807583
O    -4.800600     5.162515     9.087154
H    -5.414121     4.415304     9.084593
H    -7.009660    -3.463769    -3.472784
O    -7.632267    -4.073559    -3.921119
H    -7.113377    -4.515726    -4.624838
H     0.075062     6.103580     10.788491
O    -0.789575     6.436452     10.543241
H    -0.672774     6.868333     9.677523
H     2.602448     1.485316    -4.098111
O     3.482508     1.834573    -3.860477
H     3.802000     1.318414    -3.090630
H    -6.948548    -0.220548     7.237416
O    -7.454630     0.558727     7.520000
H    -8.077885     0.745496     6.816831
H    -2.754821    -9.874737    -0.833056
O    -2.689206    -8.932989    -0.991278
H    -3.593921    -8.564467    -0.749034
H    -10.052182     3.100815    -4.870559
O    -10.171387     2.183253    -4.591013
H    -10.385392     2.266601    -3.640797
H    -2.054920    -3.035545     4.620523
O    -2.930261    -3.474212     4.691343
H    -2.927157    -4.090283     3.933533
H    -0.180636    -7.995753     2.482103
O     0.647094    -7.788265     2.928975
H     1.363469    -8.085330     2.340416
H     6.717861    -2.418818     6.393594
O     7.168286    -3.123862     5.924284
H     6.539884    -3.859944     5.882120
H    -5.253215    -2.009411     6.956616
O    -5.928925    -1.509025     6.474401
H    -5.914967    -1.884475     5.564507
H     0.849435     3.031920    -7.102319
O     1.766031     2.698528    -7.160440
H     1.749102     1.952140    -7.787475
H    -3.905303     8.747741     6.700879
O    -3.909569     8.746821     5.743514
H    -4.034355     7.819471     5.475039
H    -2.021518     10.314200    -2.709139
O    -2.922898     10.498509    -3.010276
H    -2.849933     11.133626    -3.722001
H     9.421264    -4.102412     4.032884
O     9.140410    -4.780134     4.655396
H     8.713854    -4.307479     5.380903
H    -0.743589    -5.996017    -5.840098
O    -0.041093    -6.564855    -5.508450
H     0.795276    -6.105253    -5.726888
H     1.863288     8.260152     0.684105
O     1.558745     8.583219    -0.193341
H     2.372992     8.620943    -0.724279
H     3.511832     2.921027    -6.654327
O     4.339212     2.627475    -6.246959
H     4.094656     2.353678    -5.337957
H     3.764927     7.107961    -1.216279
O     3.972817     8.043010    -1.429933
H     4.340813     7.986805    -2.323602
H     4.398923    -0.016679    -7.909485
O     4.777906     0.127191    -7.040495
H     4.598863     1.059270    -6.795186
H     6.049565     1.908776    -0.473375
O     6.615145     2.100272    -1.235116
H     7.438589     1.618296    -1.042337
H     6.675169    -8.456504    -1.620702
O     7.310700    -8.246244    -2.357629
H     7.674695    -9.080928    -2.647689
H    -5.309204    -5.775311    -5.400241
O    -5.925068    -5.101254    -5.713126
H    -5.372267    -4.334096    -5.949491
H     0.736069     7.148632     7.618754
O    -0.165194     7.176315     7.979911
H    -0.722371     7.197573     7.163775
H    -8.895719    -2.812901    -4.085220
O    -9.413861    -2.003351    -3.915682
H    -9.126962    -1.338145    -4.545101
H    -2.413605    -5.988168    -2.140669
O    -3.291425    -5.699191    -2.407407
H    -3.480999    -6.071823    -3.293547
H    -2.994862    -5.892965    -5.405639
O    -3.595487    -6.501942    -4.933270
H    -3.115484    -7.323762    -4.768835
H    -1.375386     3.732108    -6.966223
O    -0.836760     2.974256    -6.697767
H    -1.077086     2.190759    -7.248402
H    -0.199891     0.421122    -8.206433
O    -1.094925     0.658159    -7.921393
H    -1.270212     0.134069    -7.123826
H    -10.401030     4.076115    -2.704052
O    -10.469706     3.296651    -2.137159
H    -9.639566     3.267258    -1.629652
H     4.603304     4.060399     1.714461
O     4.399697     3.140008     2.002718
H     5.112598     2.561459     1.719542
H     6.498231     1.377604    -4.218591
O     6.195130     0.753050    -3.524844
H     6.227975     1.247784    -2.680713
H     9.640846    -2.259973    -0.938352
O     9.916745    -2.044404    -1.838013
H     9.116523    -1.703449    -2.280046
H     9.971389    -3.352174    -3.109763
O     9.701322    -4.002710    -3.784904
H     9.308025    -3.493157    -4.504044
H    -7.708578    -8.560740    -1.659561
O    -6.969270    -7.968228    -1.787914
H    -7.344488    -7.054182    -1.776345
H     4.185786     6.066315    -3.809527
O     4.849161     6.765505    -3.726052
H     5.684225     6.309452    -3.588763
H     0.083907    -8.172145    -5.219549
O     0.105599    -9.155294    -5.089043
H     0.253543    -9.518235    -5.962387
H    -2.344518    -8.672542    -2.717179
O    -2.111096    -8.407937    -3.626584
H    -1.466805    -9.027703    -3.987271
H     2.165197    -10.826355    -3.506625
O     2.121703    -9.871734    -3.480670
H     1.336364    -9.598033    -4.005554
H     6.852751     3.309758    -4.571239
O     6.908114     2.632072    -5.272914
H     6.114345     2.768340    -5.812419
H    -3.548890    -3.734346     7.728865
O    -3.660114    -2.944820     7.200749
H    -3.412295    -3.183350     6.281310
H    -0.641498    -3.359495    -6.720086
O    -0.009062    -2.629972    -6.727176
H    -0.488158    -1.853545    -6.383894
H     0.662685     0.433079     8.762423
O     0.674921    -0.280768     8.121184
H    -0.248394    -0.567188     8.031106
H    -5.805910     7.381364    -4.222864
O    -6.311389     6.764670    -4.784075
H    -6.599291     6.033663    -4.193489
H    -4.244792     9.110804    -3.234314
O    -4.782310     8.315790    -3.128591
H    -4.374082     7.834303    -2.390809
H    -9.688064     5.821293    -4.614049
O    -10.223280     5.017696    -4.451103
H    -11.103878     5.221544    -4.768030
H     2.804643     6.613731     6.121266
O     1.840509     6.651356     6.244098
H     1.563824     5.720898     6.133214
H     4.841827     8.524621     0.097773
O     5.162283     8.524644     1.017286
H     5.564204     7.658336     1.149738
H     4.132346    -7.439696    -4.351458
O     3.372710    -7.721684    -4.892978
H     3.090780    -8.562492    -4.517754
H     0.424251     8.642625     4.259530
O     1.094652     7.993381     4.025067
H     1.330839     7.501752     4.839386
H     5.256462     4.173783    -3.150825
O     6.217922     4.139868    -3.100281
H     6.426321     3.557994    -2.352765
H    -2.555979    -1.557948     7.583473
O    -2.041703    -0.767471     7.804933
H    -2.665355    -0.139048     8.179517
H    -8.998168     7.958624    -4.112113
O    -8.937620     7.374979    -4.869843
H    -7.981106     7.208749    -5.006609
H     3.523470    -9.000307     1.079750
O     2.849140    -8.367129     1.331430
H     3.326377    -7.563421     1.611027
H     3.623779     8.150410     1.848800
O     2.829981     7.591053     1.955377
H     2.390024     7.820221     2.787069
N     4.887108     3.785332     7.471083
H     5.543810     3.150319     7.163603
H     4.174296     3.237232     7.841611
