12

H     3.243075    -2.570435    -8.392267
O     3.161482    -3.069639    -7.561495
H     4.045550    -3.019600    -7.154631
H     4.768955    -1.297407    -9.281900
O     3.851724    -1.228266    -9.619555
H     3.926493    -1.645532    -10.485037
H     6.998567    -1.109191    -8.304309
O     6.399020    -1.814825    -8.585651
H     6.139501    -2.238125    -7.744676
N     5.488754    -3.113645    -11.034211
H     6.062528    -3.344901    -11.769061
H     6.089500    -2.868879    -10.313606
