24

H     2.391734    -6.533249    -3.945452
O     2.045669    -6.200094    -3.106915
H     2.445674    -6.804501    -2.441524
H     3.766858    -5.020311    -5.244519
O     4.532809    -4.672804    -4.749880
H     4.911320    -5.376079    -4.191395
H     2.301920    -4.390435    -6.755584
O     2.152480    -4.911736    -5.950417
H     1.893035    -4.215167    -5.284357
H    -0.803514    -5.871541    -5.912225
O    -0.093288    -6.449609    -5.601142
H     0.724792    -5.934321    -5.747480
H     0.060370    -8.098583    -5.152042
O     0.234460    -9.066489    -5.047379
H     0.713185    -9.242178    -5.877014
H     2.337306    -10.721703    -3.564443
O     2.193219    -9.782304    -3.446194
H     1.389697    -9.514749    -3.980608
H     4.317772    -7.493599    -4.341098
O     3.557607    -7.834781    -4.849643
H     3.269580    -8.622109    -4.342043
N     2.080745    -8.688848    -7.133601
H     2.747534    -8.300409    -6.537895
H     1.686873    -7.925915    -7.569497
