36

H     0.121791     5.608247    -0.769511
O     0.642926     6.285119    -1.273067
H     0.826688     7.045289    -0.667718
H    -0.558041     6.917872    -2.242819
O    -1.267446     7.358613    -2.769382
H    -2.061713     7.225867    -2.199538
H    -0.861797     4.485171    -4.018948
O    -1.635323     5.052872    -4.192544
H    -1.444762     5.916659    -3.783760
H     0.676314     3.141642    -2.664573
O     0.640040     3.507794    -3.572869
H     0.714726     2.716813    -4.124945
H    -0.688676     8.885647    -2.153979
O    -0.539725     9.752215    -1.709587
H     0.153568     9.581562    -1.053934
H     2.237893     5.703507    -1.142846
O     3.186191     5.482895    -1.013546
H     3.403497     4.836102    -1.719885
H     3.451296     3.476895    -3.561208
O     3.772109     4.383792    -3.356175
H     3.189008     5.019950    -3.815897
H     1.899682     8.236850     0.704537
O     1.563055     8.555977    -0.168073
H     2.371568     8.627920    -0.706235
H     3.809366     7.042418    -1.302989
O     4.025315     7.972448    -1.558871
H     4.810413     7.863392    -2.132195
H     6.031572     7.196025    -4.162465
O     6.140240     7.135273    -3.209066
H     6.380994     6.201065    -3.053684
H     5.448671     4.261802    -3.209769
O     6.428444     4.262941    -3.100557
H     6.590919     3.638189    -2.372232
N     2.218359     6.660195    -3.949500
H     2.734285     7.222208    -3.351487
H     1.489692     6.353887    -3.395054
