18

H     0.701979    -5.004730     1.932855
O     0.179672    -5.085822     2.753575
H     0.327860    -5.995243     3.042066
H     3.392596    -6.143802     3.139420
O     3.745195    -5.954414     2.230527
H     3.016600    -5.599930     1.686174
H     2.466709    -5.548710     4.946987
O     2.953764    -6.387784     4.716031
H     2.427061    -7.139394     5.049082
H    -0.383689    -7.965656     2.220826
O     0.450722    -7.929050     2.717464
H     1.166874    -8.196997     2.107500
H     3.496641    -9.020760     0.960913
O     2.839741    -8.394099     1.281414
H     3.352397    -7.619037     1.592899
N     1.270366    -8.548177     5.283272
H     0.867410    -8.497033     4.393656
H     1.676562    -9.418421     5.324951
