24
Coordinates from ORCA-job grain_mol_opt.QMRegion
  H   2.36972650600191     -6.50474372485006     -3.98388704872729
  O   2.02568063956551     -6.17472524976434     -3.14329391230090
  H   2.42679229938069     -6.78190989461519     -2.48110168538863
  H   3.74295023431122     -4.98823440791729     -5.28031451906389
  O   4.51018256891332     -4.64300246923515     -4.78607011281053
  H   4.88946064202009     -5.34855621281805     -4.23098187646017
  H   2.27505133339834     -4.35198134739972     -6.78578867780807
  O   2.12705130374914     -4.87611744117734     -5.98219935088749
  H   1.86950249617091     -4.18180994483115     -5.31304184613121
  H   -0.82951528817094     -5.83415324351860     -5.94112965198964
  O   -0.11899877228936     -6.41381239437028     -5.63369272955084
  H   0.69909921885219     -5.89853253736109     -5.77991806795240
  H   0.03466974090458     -8.06452868564436     -5.19106184518454
  O   0.20845853147001     -9.03290696196403     -5.09036517647693
  H   0.68537954390369     -9.20574664392431     -5.92164165650282
  H   2.31347843453789    -10.69473272707543     -3.61800905584815
  O   2.17020660757007     -9.75568877337096     -3.49600730274661
  H   1.36571127031680     -9.48570787966143     -4.02773722805092
  H   4.29442556123584     -7.46514660928809     -4.38721447851984
  O   3.53300743022317     -7.80404846515906     -4.89540397923807
  H   3.24547095779776     -8.59295448227873     -4.38998370363981
  O   2.05062132623668     -8.64884499890900     -7.17894194332137
  H   1.65644553936481     -7.88419122897140     -7.61153605575495
  H   2.71888857810465     -8.26289333675583     -6.58326401259863
