603

H     0.203866     3.031428    -0.686197
O     0.727878     2.363543    -1.178754
H     1.665957     2.491450    -0.901766
H    -0.086332    -1.311125     3.137686
O     0.306672    -0.610553     2.594427
H    -0.170565     0.203034     2.828146
H    -2.396160     2.411780    -0.552885
O    -2.188960     1.940457     0.271455
H    -2.202474     0.992872     0.045679
H    -4.670233     0.546126     2.155867
O    -4.989905    -0.386525     2.163888
H    -4.478737    -0.864574     1.502629
H     0.060137    -0.310379     0.939493
O    -0.135209    -0.071957     0.012501
H     0.206547     0.824078    -0.105881
H    -0.167661    -3.582214     3.761674
O    -0.447662    -2.752298     4.181825
H     0.196060    -2.582815     4.886134
H    -4.889640     2.531046     1.305920
O    -4.252750     2.119536     1.921817
H    -3.407979     2.102579     1.412300
H    -3.240912     3.901935    -2.229486
O    -2.505179     3.303296    -1.997226
H    -2.143179     3.017477    -2.856058
H    -0.128750    -3.806121     0.486853
O     0.210023    -2.988795     0.906008
H    -0.577922    -2.502851     1.216914
H    -2.385983    -1.541174     2.448900
O    -2.196050    -2.006445     1.607644
H    -2.450190    -1.417382     0.878350
H     2.075199    -1.443476    -1.128241
O     2.303829    -1.697349    -0.210384
H     1.513471    -2.125350     0.170546
H    -1.395321     1.823228     1.898138
O    -1.492033     1.423912     2.772812
H    -1.478539     2.134828     3.439435
H     0.211986    -2.701855    -1.584532
O    -0.543289    -2.089776    -1.640684
H    -0.365367    -1.364420    -1.005084
H    -3.435555    -2.923981    -0.416089
O    -2.719232    -3.415446    -0.838933
H    -2.006653    -2.785550    -1.051667
H     2.762745     0.123733     2.930359
O     2.858424    -0.060353     3.892073
H     2.949130     0.831825     4.298475
H    -3.526135     6.382079    -0.557928
O    -3.285688     7.044984    -1.257033
H    -3.144562     7.889703    -0.785670
H     3.897726     0.580371     1.186871
O     2.946664     0.398916     1.299419
H     2.711243    -0.352823     0.718500
H    -5.776710     0.848000    -1.631024
O    -4.866362     1.174348    -1.504340
H    -4.977000     2.002871    -0.992497
H    -1.217540     5.394680     2.200763
O    -1.842369     4.647793     2.081186
H    -1.922774     4.228168     2.943031
H     3.492424     2.760675     0.427274
O     3.246736     2.718744    -0.512584
H     3.580729     1.876713    -0.863086
H     1.496011    -4.695619    -2.263998
O     1.558186    -3.918578    -1.690249
H     2.354552    -3.457622    -2.037703
H    -0.913533    -0.082005    -2.561807
O    -0.279980     0.571501    -2.884722
H    -0.020114     1.152729    -2.146590
H     1.696968    -4.686677    -0.192049
O     1.801182    -5.324496     0.550222
H     1.338760    -6.135372     0.251811
H    -1.218043    -3.262348    -2.898800
O    -1.046069    -3.944702    -3.561013
H    -0.919519    -4.792609    -3.093498
H    -2.794673     3.303924     4.688189
O    -1.813386     3.300460     4.656786
H    -1.523225     2.897786     5.493581
H     0.950192     5.028894     4.072978
O     0.003965     5.261105     4.122198
H    -0.468782     4.457788     4.378199
H    -1.732698    -4.650321    -0.394929
O    -0.968421    -5.191306    -0.108411
H    -1.317371    -5.879105     0.467992
H    -3.908958     5.836529    -2.614612
O    -4.259197     5.003354    -2.947504
H    -4.100054     4.970086    -3.915007
H    -2.438929    -3.691463     1.912372
O    -2.459231    -4.596427     2.286005
H    -1.520029    -4.835141     2.429639
H    -4.688706    -2.979403    -2.925278
O    -3.836677    -3.207605    -3.333601
H    -3.502622    -4.001448    -2.870106
H     0.324613     1.370596     4.605762
O     0.831329     2.131086     4.273993
H     0.878963     2.789003     4.981958
H    -4.649879    -5.168498    -1.604319
O    -5.352486    -4.810373    -1.034140
H    -5.146837    -5.168118    -0.149089
H     2.335268    -6.478688    -4.052387
O     1.995388    -6.150667    -3.199644
H     2.427562    -6.725498    -2.535694
H     0.476553    -3.374959    -4.020844
O     1.280637    -3.007490    -4.440626
H     0.964716    -2.634755    -5.289870
H     1.953509    -1.757938     2.973613
O     2.108645    -2.688624     2.755396
H     1.424695    -2.901017     2.086145
H    -3.006436    -1.804742    -3.233343
O    -2.584795    -0.918413    -3.165918
H    -3.238189    -0.271573    -3.487008
H    -3.192955     4.975268     1.064211
O    -3.973580     5.348976     0.607910
H    -4.390178     5.906629     1.313653
H     0.867929     2.249612     2.584262
O     0.971391     2.245737     1.613281
H     1.699145     1.623015     1.450651
H     0.193916     5.657687    -0.762668
O     0.716815     6.319878    -1.269642
H     0.858119     7.119023    -0.712579
H     0.336580     7.032382     2.588368
O    -0.023274     6.652890     1.769484
H     0.641495     5.982578     1.509258
H    -2.491031     0.212001     3.321449
O    -2.714978    -0.603006     3.823868
H    -1.956689    -0.643623     4.448394
H    -0.913642     0.546188     6.010856
O    -0.637662     0.027602     5.236488
H     0.074942    -0.576336     5.524649
H     0.700659    -4.997718     1.963960
O     0.155364    -5.107970     2.766277
H     0.299169    -6.028869     3.038026
H    -2.124984    -8.088591     0.418813
O    -1.804410    -7.600854     1.204942
H    -2.591755    -7.291415     1.660360
H    -0.371011     6.866608    -2.330370
O    -1.116049     7.286933    -2.831522
H    -1.907491     7.160689    -2.270039
H    -1.114584     4.309142     0.563853
O    -0.739366     4.370869    -0.331281
H    -1.444323     4.130277    -0.965756
H    -4.420177     2.744331     3.485117
O    -4.421616     2.913564     4.449750
H    -4.506458     2.030111     4.857722
H     2.008655    -3.589108     4.233652
O     1.941782    -4.062437     5.085981
H     2.447438    -3.527081     5.718914
H     4.682973    -3.198631     0.836927
O     4.525342    -3.121590    -0.129968
H     3.666952    -2.643854    -0.215218
H    -2.719269    -0.745855    -1.372846
O    -3.050272    -0.477315    -0.499418
H    -3.848772     0.050489    -0.707849
H    -1.602780    -0.754574    -4.648615
O    -1.095201    -0.537560    -5.451669
H    -0.385231     0.058071    -5.164601
H     1.803383    -1.711945    -3.386216
O     1.893588    -0.965823    -2.761970
H     1.117170    -0.388139    -2.895167
H     3.652926    -3.127850     2.545392
O     4.612053    -3.357007     2.474616
H     4.666209    -4.317294     2.600627
H     3.412992    -6.127619     3.113587
O     3.771341    -5.925737     2.214628
H     3.035567    -5.579089     1.670139
H    -3.332098     1.615542    -4.199214
O    -4.178486     1.145567    -4.010965
H    -4.397477     1.291490    -3.054573
H    -5.080812     4.149602     0.045112
O    -5.520107     3.284200    -0.062894
H    -6.449878     3.405790    -0.344568
H     6.736485    -1.184198    -1.356259
O     5.962229    -1.034986    -0.807130
H     5.542674    -1.902917    -0.611669
H     4.598346    -3.168718    -2.472996
O     3.731758    -2.996620    -2.891398
H     3.737427    -3.614606    -3.648220
H     4.415599    -2.303679     5.619728
O     4.069803    -2.770151     6.411053
H     4.405059    -3.675091     6.329486
H    -0.767973     6.331539     5.068352
O    -1.366161     6.906861     5.605293
H    -1.377788     7.784555     5.165032
H     4.701690    -0.137293    -1.464945
O     3.935148     0.405559    -1.729482
H     3.243625    -0.194576    -2.062141
H    -0.730191     4.528532    -4.046319
O    -1.512566     5.071663    -4.255513
H    -1.361718     5.938008    -3.831878
H     0.667520     3.206308    -2.664574
O     0.676666     3.583788    -3.572790
H     0.726521     2.820975    -4.158900
H    -5.394410    -5.193627     1.758493
O    -4.696499    -5.785758     1.401834
H    -3.856536    -5.372454     1.678142
H     7.891076    -1.690087    -4.024961
O     7.630559    -1.377813    -3.125748
H     7.144678    -0.533511    -3.282693
H     3.713144    -5.068923    -5.297850
O     4.473987    -4.695953    -4.814018
H     4.856931    -5.407736    -4.268041
H    -3.800636     0.013231     4.911317
O    -4.403246     0.477020     5.542128
H    -5.064264    -0.181250     5.832001
H     3.461682    -5.944392    -0.528666
O     4.335106    -5.697084    -0.844407
H     4.411734    -4.735074    -0.698945
H     5.011200    -0.334104    -4.158621
O     4.476290    -1.044510    -4.550845
H     4.148374    -1.628867    -3.834646
H    -1.162739     1.576801    -3.950337
O    -1.812895     2.196630    -4.338061
H    -1.451757     2.530259    -5.182198
H     4.887128    -6.322651    -2.321190
O     5.222326    -6.646533    -3.186302
H     6.039461    -7.128293    -2.997821
H     8.744714    -5.093801    -2.911418
O     8.051358    -5.511800    -2.355830
H     8.086031    -6.469043    -2.458773
H     2.337431     4.717358     0.451784
O     1.755558     4.698756     1.220961
H     1.397807     3.778486     1.296700
H    -4.430881    -2.637937     4.202661
O    -5.324059    -2.297960     3.997330
H    -5.185390    -1.515751     3.424039
H    -5.853211    -3.193902     1.284566
O    -6.320933    -3.750206     1.949440
H    -6.133300    -3.318065     2.801868
H     1.666029     3.459133     6.859179
O     1.044801     3.975396     6.324001
H     0.260362     4.128425     6.893673
H     4.987544    -2.176768     3.615779
O     5.006254    -1.459273     4.280772
H     4.195114    -0.902546     4.122427
H     2.371783    -5.584426     4.826418
O     2.752212    -6.468008     4.566199
H     2.007496    -7.049192     4.389653
H     2.273409    -4.509729    -6.801852
O     2.101034    -4.999019    -5.987440
H     1.835397    -4.308647    -5.331732
H     6.437421    -4.106795    -0.502183
O     7.189092    -4.510609    -0.037119
H     7.698353    -4.932872    -0.756810
H    -1.747735     4.481417     7.688877
O    -0.849850     4.578645     8.076737
H    -0.668646     5.537706     8.103119
H    -5.102562     5.700942    -5.617054
O    -4.496647     4.936035    -5.637034
H    -3.736937     5.151089    -6.199643
H     3.303100    -2.520006    -8.442986
O     3.212528    -3.052877    -7.642117
H     4.088099    -3.030043    -7.210956
H    -0.651038     8.829702    -2.282681
O    -0.529589     9.657349    -1.762333
H     0.231049     9.482179    -1.183620
H     2.048685    -0.920292     5.204342
O     1.473481    -1.446459     5.789101
H     1.565059    -1.102694     6.687160
H     5.219282    -2.021039    -5.692875
O     5.566415    -2.786908    -6.214787
H     5.291061    -3.577317    -5.698742
H     5.677154    -5.224075     4.683936
O     5.152466    -5.139581     5.509118
H     4.431231    -5.771545     5.421105
H    -3.996455     1.139625     6.984403
O    -3.806482     1.614599     7.829070
H    -4.683196     2.000262     8.087944
H    -1.847026     9.616097    -0.752760
O    -2.709030     9.489055    -0.281284
H    -3.318596     10.118903    -0.669469
H    -5.939490     4.695872    -2.963519
O    -6.847627     4.575804    -3.309219
H    -6.755551     3.875130    -3.987375
H     0.092144    -7.063863    -1.163524
O     0.554239    -7.500552    -0.415102
H    -0.126722    -7.696446     0.231576
H    -7.631977     3.797855    -2.003072
O    -7.897344     3.210033    -1.264953
H    -7.751686     2.301991    -1.603840
H     3.950520    -0.903196     6.984725
O     3.959353     0.060965     6.976256
H     4.773259     0.350989     6.547781
H     2.262179     5.796005    -1.179091
O     3.197189     5.502726    -1.062413
H     3.376021     4.963541    -1.855721
H     6.543711    -5.934628     0.671668
O     6.173126    -6.671422     1.203322
H     5.268171    -6.394079     1.428098
H    -3.891307     4.722019     7.762575
O    -3.323152     4.259761     7.104421
H    -3.517044     3.316280     7.213660
H     5.756035    -7.949701     0.133110
O     5.469653    -8.635967    -0.505980
H     4.641777    -8.309633    -0.902207
H    -0.581240     2.033128     7.681550
O    -1.212434     1.969497     6.944590
H    -2.082043     1.827869     7.338688
H    -6.383952    -0.119337     1.027568
O    -6.709000    -0.204840     0.116022
H    -7.627848    -0.473839     0.141666
H    -5.372766    -3.062600    -0.618021
O    -5.122149    -2.358434     0.006162
H    -5.693686    -1.586684    -0.180049
H     4.316929     5.575061     0.326508
O     4.648121     5.674502     1.232820
H     3.952610     6.184704     1.683619
H    -9.077175    -1.748330    -2.226762
O    -8.530653    -1.561017    -1.446911
H    -8.627377    -2.291927    -0.788469
H    -5.513166     3.477037    -5.551880
O    -6.030007     2.763904    -5.140303
H    -5.362265     2.181361    -4.724110
H     3.193973    -0.884137    -5.659382
O     2.339229    -1.003506    -6.127621
H     2.426453    -1.851795    -6.602166
H     8.128807    -1.347692    -6.019812
O     8.135237    -2.212084    -5.564107
H     7.279757    -2.611591    -5.817668
H     7.636873     0.993311    -6.299526
O     7.448624     0.145518    -6.714123
H     6.467402     0.096001    -6.753137
H    -7.868520    -3.675761     1.027137
O    -8.581354    -3.580119     0.367528
H    -8.459000    -4.341199    -0.231323
H    -2.409599     8.736634     1.283121
O    -2.261482     8.146986     2.035815
H    -1.490600     7.594112     1.814938
H    -4.453517     6.434033     3.478810
O    -4.621059     6.860442     2.621926
H    -3.857342     7.446740     2.485322
H     3.410029     3.448337    -3.576348
O     3.256692     4.417515    -3.482381
H     2.292234     4.482846    -3.592775
H    -6.116546    -1.597434    -3.527991
O    -6.224434    -2.195001    -2.757807
H    -6.990378    -1.872961    -2.224181
H     6.452225     1.041067     4.746852
O     6.056193     1.579232     5.449127
H     6.245535     2.498156     5.159786
H     1.376099     1.727165    -5.829257
O     1.178498     1.130339    -5.076512
H     1.543718     0.267808    -5.345857
H    -2.520599     2.953344     10.467867
O    -2.307929     2.046022     10.193962
H    -2.903848     1.847417     9.459870
H     7.615821    -0.505421     3.092373
O     6.865459     0.070344     3.259415
H     6.172007    -0.530071     3.636532
H    -5.665218    -8.051296    -0.737704
O    -4.930777    -8.119964    -0.091307
H    -4.937235    -7.304207     0.432844
H    -5.165443    -0.114109    -4.738490
O    -5.785949    -0.823424    -4.977783
H    -6.617557    -0.376346    -5.188266
H     1.908723    -0.191782    -7.522158
O     1.709198     0.281040    -8.366021
H     2.287635    -0.123440    -9.018067
H     4.895228    -1.386102    -9.304013
O     3.970926    -1.156565    -9.588567
H     3.953443    -1.273626    -10.537770
H     7.548114    -2.579555     4.206400
O     7.697314    -2.614493     3.247232
H     7.204784    -3.405148     2.973307
H     6.707803    -5.901762     2.685367
O     6.767650    -5.227124     3.387180
H     7.642277    -5.312927     3.807587
H    -1.829600     8.945009     3.489070
O    -1.584202     9.248597     4.388364
H    -2.434140     9.381078     4.841721
H    -7.375723     1.571301    -5.282921
O    -7.959977     0.833198    -5.039946
H    -8.856887     1.248384    -4.963147
H     6.946955    -1.077960    -8.398177
O     6.365073    -1.798241    -8.664084
H     6.135057    -2.249131    -7.833296
H    -1.657888     6.248496    -7.033420
O    -2.057187     5.423598    -6.760742
H    -1.810538     5.292217    -5.796747
H    -0.026140     3.301693     9.014697
O     0.169651     2.381497     9.269152
H    -0.630161     2.117245     9.773238
H     6.759876    -2.780671    -2.700880
O     6.227930    -3.525031    -2.362424
H     6.697017    -4.335801    -2.608078
H    -4.067763    -3.066085    -4.970111
O    -4.221691    -2.953768    -5.935196
H    -4.764416    -2.158091    -5.993658
H     1.954252     2.174140     8.461164
O     2.619886     2.286818     7.772846
H     3.042134     1.416523     7.658012
H    -6.847614    -5.206567    -1.401473
O    -7.781944    -5.465323    -1.601112
H    -7.893375    -5.132239    -2.514123
H    -3.843764     5.252798     5.679818
O    -3.809028     6.021420     5.089333
H    -2.875303     6.315628     5.186648
H    -7.882749     0.095584    -1.998569
O    -7.389693     0.817158    -2.411457
H    -7.617162     0.810524    -3.364103
H     5.833687     0.126526     0.416674
O     5.610150     0.847510     1.037597
H     6.118086     0.651394     1.851797
H    -6.237728     3.307370     7.370014
O    -6.112094     2.788282     8.198427
H    -6.712572     2.027381     8.107997
H     2.274023    -8.074428    -0.856211
O     2.952420    -8.060906    -1.551052
H     2.729188    -8.774600    -2.165253
H    -2.731065    -3.953552    -6.221548
O    -1.979227    -4.520827    -5.987439
H    -1.704754    -4.230443    -5.089283
H    -5.659791     3.759695     5.285357
O    -6.310889     4.155862     5.900608
H    -6.146329     5.099763     5.889473
H    -1.015878    -7.110567    -3.185225
O    -0.545087    -6.440768    -2.655510
H     0.363997    -6.372325    -3.032945
H     4.428005     2.009246     5.131825
O     3.486794     2.249157     5.009265
H     3.100142     2.264719     5.890153
H     4.091044     4.649040     6.305876
O     4.174056     5.379667     5.688648
H     3.608320     5.140254     4.916074
H     2.752699     3.612380     3.922760
O     2.575887     4.552677     3.757065
H     2.459264     4.652225     2.790440
H     9.394070     0.207429    -1.055997
O     8.586317     0.369976    -0.565170
H     8.409015    -0.449093    -0.072960
H    -2.131589     5.312010     10.638617
O    -2.854555     4.683556     10.867188
H    -3.075568     4.860036     11.781880
H     7.967852    -3.013982     0.335229
O     8.388470    -2.167641     0.592285
H     8.320183    -2.163699     1.554439
H     5.359526     3.659054     3.532392
O     6.014177     3.923477     4.200492
H     5.600587     4.641186     4.701973
H    -4.237246     5.016259     9.766379
O    -4.868065     5.167885     9.042495
H    -5.480448     4.419699     9.038019
H    -7.031572    -3.481456    -3.578142
O    -7.626571    -4.109328    -4.061351
H    -7.046972    -4.541170    -4.732706
H    -0.002936     6.119433     10.765590
O    -0.866730     6.451183     10.516052
H    -0.748295     6.882725     9.650610
H     2.598681     1.498178    -4.108036
O     3.476405     1.850581    -3.866917
H     3.794738     1.334869    -3.095970
H    -6.996269    -0.221036     7.188373
O    -7.504732     0.557963     7.467413
H    -8.126728     0.741379     6.762283
H    -2.748388    -9.870564    -0.859766
O    -2.684499    -8.928746    -1.018439
H    -3.591126    -8.562468    -0.779935
H    -10.056460     3.086021    -4.938473
O    -10.171656     2.169106    -4.654829
H    -10.391558     2.257009    -3.705738
H    -2.085075    -3.027198     4.593595
O    -2.960742    -3.466344     4.659996
H    -2.952613    -4.084307     3.903926
H    -0.191942    -7.985008     2.465747
O     0.633264    -7.774485     2.915716
H     1.353099    -8.070693     2.330945
H     6.684013    -2.385024     6.397415
O     7.134138    -3.094606     5.934256
H     6.503937    -3.829127     5.893769
H    -5.295807    -2.006347     6.915509
O    -5.970037    -1.507096     6.429859
H    -5.952402    -1.884019     5.520828
H     0.854851     3.039668    -7.121235
O     1.772230     2.708037    -7.174707
H     1.760002     1.961273    -7.801514
H    -3.972081     8.754050     6.658144
O    -3.967474     8.752264     5.700784
H    -4.092536     7.824917     5.432352
H    -2.049796     10.318499    -2.745159
O    -2.950557     10.500130    -3.049602
H    -2.876819     11.135525    -3.761017
H     9.394434    -4.070079     4.055101
O     9.112236    -4.748596     4.676135
H     8.681326    -4.276631     5.399695
H    -0.723871    -5.990862    -5.861075
O    -0.022096    -6.557691    -5.524785
H     0.814577    -6.097148    -5.740017
H     1.825071     8.274477     0.665507
O     1.524173     8.596893    -0.212713
H     2.340350     8.635256    -0.740884
H     3.515763     2.934985    -6.661500
O     4.342019     2.643788    -6.250293
H     4.094283     2.369377    -5.342319
H     3.737564     7.124779    -1.224585
O     3.944142     8.060584    -1.436790
H     4.315923     8.005066    -2.329085
H     4.414576    -0.001788    -7.911528
O     4.788711     0.143397    -7.040657
H     4.607274     1.075334    -6.797003
H     6.030274     1.930600    -0.468434
O     6.597461     2.124162    -1.228727
H     7.421374     1.644014    -1.033129
H     6.681143    -8.433520    -1.608064
O     7.318943    -8.222406    -2.342885
H     7.686098    -9.056531    -2.630562
H    -5.295111    -5.781089    -5.437000
O    -5.908561    -5.103921    -5.748430
H    -5.352928    -4.340401    -5.990838
H     0.662179     7.167309     7.598064
O    -0.240331     7.194865     7.955108
H    -0.793650     7.210662     7.136223
H    -8.661114    -2.471755    -4.459506
O    -9.242364    -1.745846    -4.171757
H    -8.973426    -0.971619    -4.681790
H    -2.410651    -5.984171    -2.166974
O    -3.286590    -5.695253    -2.440099
H    -3.471661    -6.071660    -3.325520
H    -2.977922    -5.892716    -5.435125
O    -3.581365    -6.500899    -4.965373
H    -3.101925    -7.322510    -4.797538
H    -1.372401     3.735038    -6.994841
O    -0.833876     2.978491    -6.722647
H    -1.068947     2.194254    -7.274592
H    -0.183874     0.426649    -8.228304
O    -1.080658     0.661577    -7.946820
H    -1.257407     0.137407    -7.149692
H    -10.417773     4.062334    -2.769952
O    -10.483864     3.279217    -2.207773
H    -9.657904     3.255329    -1.693051
H     4.574712     4.077133     1.725245
O     4.364818     3.155875     2.001658
H     5.081553     2.580003     1.722512
H     6.495235     1.399211    -4.212098
O     6.189678     0.774691    -3.519571
H     6.218867     1.269278    -2.675182
H     9.631591    -2.230095    -0.916669
O     9.910723    -2.014879    -1.815481
H     9.111737    -1.675368    -2.260732
H     9.973394    -3.323108    -3.085888
O     9.707621    -3.974354    -3.762080
H     9.316454    -3.465867    -4.483087
H    -7.691702    -8.567923    -1.788161
O    -6.955725    -7.960156    -1.843484
H    -7.346121    -7.054480    -1.810266
H     4.171431     6.083095    -3.815658
O     4.832460     6.784041    -3.728004
H     5.668208     6.329766    -3.588831
H     0.104847    -8.165116    -5.234650
O     0.126958    -9.147996    -5.103181
H     0.279636    -9.511744    -5.975378
H    -2.333834    -8.668661    -2.742925
O    -2.097656    -8.402828    -3.651353
H    -1.451200    -9.021627    -4.009971
H     2.184849    -10.813657    -3.511399
O     2.138896    -9.859109    -3.486562
H     1.354741    -9.587844    -4.014309
H     6.847317     3.331997    -4.564467
O     6.906885     2.654269    -5.265642
H     6.115110     2.788454    -5.808539
H    -3.591026    -3.726522     7.696229
O    -3.703064    -2.938299     7.166313
H    -3.449347    -3.176919     6.248621
H    -0.623299    -3.354855    -6.741608
O     0.006776    -2.623353    -6.746380
H    -0.475543    -1.848063    -6.405340
H     0.614876     0.453601     8.743172
O     0.623560    -0.260442     8.101776
H    -0.298603    -0.548788     8.011657
H    -5.820919     7.377253    -4.272934
O    -6.322923     6.758643    -4.835218
H    -6.612343     6.028559    -4.244675
H    -4.268498     9.109893    -3.278973
O    -4.804466     8.313631    -3.174729
H    -4.398260     7.833913    -2.434737
H    -9.699617     5.806219    -4.678873
O    -10.233416     5.000959    -4.519137
H    -11.113538     5.204010    -4.837987
H     2.752047     6.509894     6.142149
O     1.791704     6.606716     6.237236
H     1.448057     5.693570     6.133393
H     4.804672     8.546026     0.093302
O     5.119294     8.545806     1.015174
H     5.525850     7.681382     1.146399
H     4.147950    -7.423423    -4.350078
O     3.390801    -7.706867    -4.894405
H     3.109483    -8.548428    -4.520359
H     0.366871     8.657145     4.231635
O     1.044559     8.012124     4.004564
H     1.268920     7.518658     4.819465
H     5.243115     4.192564    -3.151108
O     6.204390     4.162045    -3.095886
H     6.411126     3.579892    -2.347989
H    -2.602562    -1.549124     7.553251
O    -2.092538    -0.756057     7.774581
H    -2.718752    -0.130186     8.148705
H    -9.016174     7.947434    -4.175984
O    -8.951349     7.360918    -4.931130
H    -7.993921     7.198692    -5.065427
H     3.519548    -8.982258     1.080284
O     2.842659    -8.349900     1.327039
H     3.317106    -7.545392     1.609594
H     3.580233     8.169774     1.834788
O     2.789049     7.606641     1.944409
H     2.340866     7.841793     2.769646
N    -10.589352    -4.591906    -3.941517
H    -9.634625    -4.635666    -4.084726
H    -10.787613    -3.671176    -4.145064
