603

H     0.178664     3.043851    -0.683992
O     0.700231     2.377994    -1.181995
H     1.639634     2.504198    -0.908594
H    -0.089893    -1.298430     3.140982
O     0.301485    -0.597068     2.597465
H    -0.176325     0.215733     2.832762
H    -2.421754     2.423414    -0.535392
O    -2.207070     1.952364     0.287021
H    -2.227306     1.004416     0.061146
H    -4.678001     0.558307     2.186376
O    -4.994784    -0.374795     2.200803
H    -4.495039    -0.852500     1.530525
H     0.044482    -0.297623     0.943850
O    -0.153577    -0.058513     0.017655
H     0.184944     0.838394    -0.100767
H    -0.168366    -3.568805     3.766037
O    -0.444719    -2.738685     4.188267
H     0.203208    -2.570303     4.888831
H    -4.903605     2.543176     1.337738
O    -4.261831     2.134164     1.950335
H    -3.421140     2.115335     1.434463
H    -3.276128     3.912098    -2.206713
O    -2.535110     3.318399    -1.979679
H    -2.182783     3.026213    -2.840155
H    -0.147604    -3.793116     0.491587
O     0.194289    -2.975794     0.908826
H    -0.592437    -2.489865     1.223228
H    -2.394796    -1.527638     2.465105
O    -2.206226    -1.992258     1.623578
H    -2.468047    -1.405975     0.894516
H     2.046887    -1.432243    -1.136457
O     2.280786    -1.684690    -0.219739
H     1.492632    -2.113393     0.165581
H    -1.407350     1.834965     1.908814
O    -1.495985     1.436949     2.784956
H    -1.479700     2.148557     3.450558
H     0.178395    -2.688690    -1.583067
O    -0.573869    -2.072722    -1.635606
H    -0.392972    -1.351290    -0.997154
H    -3.463580    -2.911854    -0.397440
O    -2.744393    -3.402689    -0.816508
H    -2.037177    -2.770672    -1.038214
H     2.757831     0.136009     2.917934
O     2.860156    -0.047177     3.879104
H     2.952542     0.845209     4.284369
H    -3.550158     6.394483    -0.534880
O    -3.314404     7.057465    -1.236252
H    -3.170372     7.901957    -0.765566
H     3.882907     0.592072     1.167599
O     2.932422     0.411516     1.285513
H     2.693022    -0.340728     0.706649
H    -5.807113     0.854958    -1.593190
O    -4.897523     1.185150    -1.467866
H    -5.009090     2.011863    -0.954759
H    -1.225701     5.407411     2.211388
O    -1.851402     4.660993     2.094876
H    -1.927375     4.240650     2.956792
H     3.473396     2.772361     0.410270
O     3.223025     2.731081    -0.528372
H     3.554140     1.888526    -0.880486
H     1.458882    -4.682683    -2.267938
O     1.527189    -3.906170    -1.694093
H     2.320884    -3.445900    -2.047559
H    -0.954043    -0.070154    -2.553058
O    -0.318368     0.582123    -2.876495
H    -0.055667     1.163825    -2.139519
H     1.673813    -4.674623    -0.197264
O     1.783204    -5.312509     0.544234
H     1.317638    -6.122918     0.248782
H    -1.263803    -3.251179    -2.887533
O    -1.073931    -3.934892    -3.542693
H    -0.958306    -4.782553    -3.073074
H    -2.788933     3.316933     4.706980
O    -1.807686     3.314926     4.670369
H    -1.512685     2.911375     5.505007
H     0.952811     5.041769     4.070371
O     0.007011     5.274535     4.124867
H    -0.464752     4.471357     4.383386
H    -1.755537    -4.637430    -0.381583
O    -0.989677    -5.177348    -0.096282
H    -1.337353    -5.866340     0.479334
H    -3.946313     5.848606    -2.584529
O    -4.297193     5.016951    -2.920476
H    -4.138645     4.986423    -3.887402
H    -2.449810    -3.678365     1.929040
O    -2.467124    -4.581852     2.306445
H    -1.527166    -4.821164     2.442555
H    -4.729947    -2.953885    -2.915663
O    -3.879030    -3.179692    -3.327970
H    -3.545947    -3.973173    -2.866539
H     0.330221     1.383809     4.606544
O     0.835383     2.144432     4.272333
H     0.886440     2.802170     4.980134
H    -4.685055    -5.148956    -1.576181
O    -5.384332    -4.801145    -0.995659
H    -5.166591    -5.158621    -0.114558
H     2.288786    -6.465768    -4.062307
O     1.957440    -6.136940    -3.206704
H     2.392001    -6.713272    -2.546078
H     0.430627    -3.361457    -4.019470
O     1.232465    -2.992815    -4.445285
H     0.912029    -2.625313    -5.292665
H     1.948069    -1.745505     2.965813
O     2.102937    -2.676035     2.746918
H     1.414828    -2.889111     2.081852
H    -3.087574    -1.825567    -3.166697
O    -2.654199    -0.936029    -3.130917
H    -3.336804    -0.296768    -3.412050
H    -3.207356     4.988355     1.085137
O    -3.989333     5.364191     0.632993
H    -4.402624     5.920388     1.341664
H     0.861311     2.262317     2.582175
O     0.960415     2.259438     1.610684
H     1.686111     1.635281     1.444222
H     0.168096     5.669791    -0.761474
O     0.687782     6.332372    -1.271704
H     0.832630     7.131018    -0.714936
H     0.331063     7.045134     2.588875
O    -0.033377     6.666401     1.771704
H     0.629030     5.995050     1.508118
H    -2.493723     0.224945     3.339570
O    -2.714396    -0.589075     3.844758
H    -1.951884    -0.630195     4.463720
H    -0.899548     0.559590     6.019989
O    -0.627355     0.041927     5.243797
H     0.085997    -0.563081     5.527631
H     0.689796    -4.985036     1.963712
O     0.151212    -5.094541     2.770637
H     0.294842    -6.015986     3.040504
H    -2.143977    -8.075439     0.436319
O    -1.819436    -7.589060     1.221848
H    -2.604896    -7.276900     1.678794
H    -0.405963     6.878534    -2.325517
O    -1.154178     7.297594    -2.823388
H    -1.942078     7.172408    -2.256464
H    -1.132242     4.321671     0.573500
O    -0.762012     4.384377    -0.323674
H    -1.470401     4.142352    -0.953949
H    -4.421013     2.757478     3.513924
O    -4.416688     2.927144     4.478694
H    -4.499296     2.043565     4.887026
H     2.010966    -3.576399     4.225834
O     1.949943    -4.049275     5.078903
H     2.458753    -3.513256     5.708574
H     4.665639    -3.186260     0.813876
O     4.502998    -3.108567    -0.152136
H     3.643537    -2.631790    -0.232548
H    -2.753490    -0.733211    -1.358794
O    -3.071200    -0.462723    -0.481041
H    -3.875391     0.060166    -0.682031
H    -1.613621    -0.833440    -4.632370
O    -0.951386    -0.650866    -5.330618
H    -0.296881    -0.082761    -4.897197
H     1.759453    -1.702082    -3.393009
O     1.857996    -0.954253    -2.771334
H     1.078896    -0.378749    -2.892373
H     3.645634    -3.115100     2.528127
O     4.604434    -3.344460     2.452216
H     4.658468    -4.304964     2.577273
H     3.408868    -6.114791     3.098019
O     3.762458    -5.912461     2.197354
H     3.023252    -5.567014     1.656432
H    -3.391068     1.627075    -4.088614
O    -4.270805     1.206774    -3.907918
H    -4.457173     1.336557    -2.937889
H    -5.103312     4.164133     0.078188
O    -5.542754     3.298755    -0.025055
H    -6.474067     3.417844    -0.303397
H     6.706682    -1.173139    -1.391568
O     5.935940    -1.022966    -0.837831
H     5.516843    -1.890700    -0.639546
H     4.562234    -3.156982    -2.496128
O     3.693866    -2.983685    -2.910162
H     3.693925    -3.603040    -3.665991
H     4.426856    -2.290526     5.597765
O     4.086600    -2.756378     6.391823
H     4.419971    -3.661805     6.307805
H    -0.759198     6.344683     5.075485
O    -1.353915     6.920501     5.615834
H    -1.368058     7.797956     5.175357
H     4.671345    -0.125809    -1.488300
O     3.903504     0.417343    -1.748514
H     3.210168    -0.182817    -2.077263
H    -0.775486     4.539852    -4.038102
O    -1.557036     5.084194    -4.248271
H    -1.405656     5.949290    -3.821513
H     0.630045     3.219574    -2.664824
O     0.632430     3.596070    -3.573978
H     0.683537     2.832027    -4.158278
H    -5.404031    -5.180781     1.794140
O    -4.708110    -5.777321     1.440305
H    -3.867168    -5.360052     1.706735
H     7.845898    -1.679045    -4.067008
O     7.591252    -1.366266    -3.166346
H     7.104024    -0.522276    -3.320386
H     3.659757    -5.054310    -5.315268
O     4.425559    -4.683476    -4.836358
H     4.809532    -5.396232    -4.292669
H    -3.793343     0.027364     4.936840
O    -4.391515     0.491136     5.572289
H    -5.051531    -0.167000     5.864680
H     3.436124    -5.932192    -0.545447
O     4.308851    -5.685300    -0.863681
H     4.385393    -4.723093    -0.720183
H     4.964366    -0.323418    -4.184363
O     4.426387    -1.032764    -4.574122
H     4.103225    -1.618103    -3.856123
H    -1.175203     1.590991    -3.886351
O    -1.851819     2.189248    -4.267406
H    -1.486908     2.595700    -5.081475
H     4.851489    -6.310899    -2.344278
O     5.182681    -6.634190    -3.211147
H     6.000148    -7.116861    -3.026951
H     8.705941    -5.082892    -2.957740
O     8.016252    -5.500427    -2.397498
H     8.049361    -6.457712    -2.500760
H     2.319054     4.729397     0.441240
O     1.741448     4.711603     1.213548
H     1.384330     3.791114     1.292228
H    -4.427981    -2.624612     4.232588
O    -5.322223    -2.283338     4.034649
H    -5.186722    -1.502871     3.457921
H    -5.867968    -3.182952     1.320379
O    -6.328223    -3.739953     1.991115
H    -6.137291    -3.304674     2.840875
H     1.684872     3.472605     6.852448
O     1.060808     3.989438     6.321110
H     0.279390     4.141821     6.895041
H     4.986525    -2.164458     3.590694
O     5.009751    -1.446482     4.255146
H     4.197604    -0.889833     4.101618
H     2.377628    -5.571620     4.816782
O     2.756715    -6.455325     4.555209
H     2.010901    -7.036087     4.381716
H     2.206747    -4.499475    -6.810864
O     2.049511    -4.987521    -5.992847
H     1.781099    -4.298082    -5.337840
H     6.412374    -4.095180    -0.534636
O     7.167280    -4.498299    -0.074219
H     7.671854    -4.921054    -0.796890
H    -1.723997     4.495022     7.701869
O    -0.823977     4.592596     8.084814
H    -0.642659     5.551596     8.109562
H    -5.155262     5.726871    -5.579057
O    -4.545457     4.964870    -5.613294
H    -3.789315     5.189165    -6.176613
H     3.233095    -2.507572    -8.458197
O     3.146892    -3.039774    -7.656823
H     4.024577    -3.019084    -7.230322
H    -0.684966     8.841496    -2.276779
O    -0.560327     9.669447    -1.757906
H     0.203250     9.494299    -1.182937
H     2.057477    -0.907085     5.195789
O     1.486380    -1.433173     5.784598
H     1.583035    -1.088681     6.681798
H     5.164386    -2.010211    -5.719020
O     5.509497    -2.775660    -6.242777
H     5.235850    -3.566399    -5.725604
H     5.682077    -5.211293     4.655357
O     5.162661    -5.126955     5.483878
H     4.440285    -5.758190     5.399684
H    -3.976696     1.153541     7.010984
O    -3.781840     1.628961     7.854580
H    -4.657102     2.014326     8.118379
H    -1.872024     9.628456    -0.739984
O    -2.731328     9.501592    -0.263825
H    -3.343040     10.131801    -0.647957
H    -5.977754     4.702342    -2.930976
O    -6.886218     4.584885    -3.275805
H    -6.797832     3.884637    -3.954993
H     0.064531    -7.052504    -1.159940
O     0.530606    -7.487768    -0.412419
H    -0.147908    -7.683562     0.236851
H    -7.665715     3.807303    -1.957753
O    -7.925449     3.223023    -1.215853
H    -7.783954     2.312496    -1.553412
H     3.969333    -0.889783     6.965168
O     3.978845     0.074408     6.957372
H     4.789887     0.364035     6.523267
H     2.234036     5.808038    -1.189595
O     3.169902     5.515369    -1.078749
H     3.344058     4.975344    -1.872475
H     6.525279    -5.922700     0.638437
O     6.158126    -6.659068     1.172941
H     5.254123    -6.381963     1.402151
H    -3.867193     4.736120     7.787875
O    -3.302607     4.273939     7.126735
H    -3.495997     3.330400     7.236779
H     5.734241    -7.937532     0.104551
O     5.444692    -8.623873    -0.532923
H     4.613825    -8.298360    -0.923893
H    -0.557743     2.046671     7.688194
O    -1.193227     1.984007     6.954971
H    -2.060547     1.841681     7.353849
H    -6.404914    -0.108525     1.074152
O    -6.727225    -0.184472     0.161671
H    -7.644150    -0.461759     0.178669
H    -5.397131    -3.045943    -0.586757
O    -5.145081    -2.347272     0.044106
H    -5.713041    -1.573899    -0.146364
H     4.297705     5.587166     0.304043
O     4.634511     5.687415     1.208156
H     3.941283     6.196920     1.663201
H    -9.076466    -1.722928    -2.235007
O    -8.536993    -1.516071    -1.444448
H    -8.654582    -2.258816    -0.812377
H    -5.540921     3.600009    -5.502652
O    -6.066290     2.860672    -5.140696
H    -5.410562     2.323951    -4.641789
H     3.137241    -0.873425    -5.675151
O     2.280474    -0.989710    -6.140986
H     2.362804    -1.840843    -6.611852
H     8.071960    -1.337093    -6.063286
O     8.081107    -2.201384    -5.607645
H     7.223740    -2.600760    -5.855539
H     7.578774     1.004122    -6.339889
O     7.388283     0.156788    -6.754390
H     6.406950     0.106492    -6.786743
H    -7.883062    -3.677890     0.938608
O    -8.565073    -3.570085     0.258151
H    -8.466897    -4.326445    -0.347733
H    -2.422488     8.749289     1.299311
O    -2.269854     8.160169     2.051424
H    -1.500600     7.606716     1.826236
H    -4.454247     6.447219     3.507199
O    -4.626532     6.874294     2.651590
H    -3.863149     7.459914     2.510652
H     3.368501     3.460066    -3.592170
O     3.214726     4.429638    -3.499036
H     2.249578     4.494134    -3.602495
H    -6.151583    -1.615634    -3.416574
O    -6.234995    -2.189106    -2.620112
H    -7.017259    -1.870717    -2.120750
H     6.458291     1.053591     4.712728
O     6.066859     1.592208     5.417254
H     6.254440     2.510956     5.126322
H     1.328022     1.742623    -5.830687
O     1.145869     1.149579    -5.072260
H     1.498021     0.284440    -5.351391
H    -2.480928     2.967786     10.485281
O    -2.269870     2.060312     10.210755
H    -2.869663     1.861429     9.479836
H     7.611999    -0.493453     3.051855
O     6.862924     0.082711     3.223282
H     6.171351    -0.517610     3.604274
H    -5.689868    -8.037268    -0.701317
O    -4.953895    -8.108048    -0.056195
H    -4.954879    -7.290530     0.465449
H    -5.346297    -0.120199    -4.596428
O    -5.955186    -0.825172    -4.871115
H    -6.816843    -0.374378    -4.951407
H     1.836507    -0.179828    -7.531099
O     1.619987     0.287108    -8.374807
H     2.206734    -0.107065    -9.026220
H     4.819147    -1.373650    -9.328074
O     3.894338    -1.140133    -9.608539
H     3.870771    -1.264936    -10.556607
H     7.550561    -2.567158     4.166608
O     7.694757    -2.602309     3.206682
H     7.200121    -3.392642     2.935502
H     6.700779    -5.889113     2.650871
O     6.765531    -5.214515     3.352418
H     7.642513    -5.301049     3.767462
H    -1.829869     8.958154     3.501978
O    -1.579340     9.262415     4.399631
H    -2.426704     9.394231     4.858031
H    -7.502237     1.695114    -5.223301
O    -8.056943     0.937304    -4.963682
H    -8.966343     1.322653    -4.842663
H     6.875839    -1.068359    -8.434591
O     6.291677    -1.787951    -8.697356
H     6.066641    -2.239123    -7.865158
H    -1.718451     6.259373    -7.020942
O    -2.113412     5.432146    -6.748886
H    -1.863408     5.302267    -5.784179
H     0.005069     3.315591     9.017759
O     0.202637     2.395686     9.271876
H    -0.594520     2.131331     9.780092
H     6.722638    -2.769551    -2.735990
O     6.192708    -3.513482    -2.393836
H     6.659310    -4.324674    -2.642745
H    -4.129846    -3.053649    -4.988601
O    -4.107842    -3.131816    -5.965350
H    -4.199811    -2.230859    -6.317633
H     1.982108     2.187621     8.452862
O     2.644001     2.300460     7.760965
H     3.065338     1.430050     7.643472
H    -6.938909    -5.182914    -1.388933
O    -7.855032    -5.453149    -1.631955
H    -7.989363    -5.048459    -2.514585
H    -3.831842     5.266507     5.704356
O    -3.800232     6.035655     5.114351
H    -2.865740     6.329026     5.205991
H    -7.912504     0.104402    -1.948980
O    -7.430875     0.834919    -2.360477
H    -7.660118     0.823502    -3.312757
H     5.814402     0.138566     0.386461
O     5.595115     0.860051     1.008368
H     6.107442     0.663617     1.819744
H    -6.215798     3.321367     7.409295
O    -6.085787     2.802688     8.237305
H    -6.686351     2.041410     8.150031
H     2.244673    -8.061540    -0.865900
O     2.921732    -8.050129    -1.562193
H     2.693882    -8.762442    -2.176390
H    -2.713825    -4.020943    -6.103608
O    -1.927614    -4.587883    -5.908572
H    -1.659653    -4.302878    -5.005818
H    -5.650232     3.772977     5.321164
O    -6.297064     4.169923     5.940556
H    -6.132358     5.113765     5.927633
H    -1.057739    -7.098592    -3.173224
O    -0.580403    -6.432988    -2.643708
H     0.323457    -6.361064    -3.031807
H     4.436588     2.022260     5.109397
O     3.494942     2.263013     4.992308
H     3.113115     2.277859     5.875304
H     4.106648     4.662168     6.284730
O     4.186093     5.392831     5.667061
H     3.615879     5.153223     4.897803
H     2.754028     3.625464     3.909955
O     2.576804     4.565826     3.744887
H     2.454278     4.664881     2.778973
H     9.366185     0.218243    -1.107247
O     8.561948     0.381922    -0.611041
H     8.386688    -0.437192    -0.118088
H    -2.090384     5.326701     10.653466
O    -2.811999     4.698399     10.886584
H    -3.027381     4.874951     11.802590
H     7.947872    -3.001963     0.292792
O     8.370483    -2.155768     0.547388
H     8.307381    -2.151753     1.509897
H     5.359035     3.671369     3.504369
O     6.017713     3.936509     4.168257
H     5.606595     4.653862     4.672270
H    -4.201419     5.030366     9.793706
O    -4.836730     5.182363     9.073877
H    -5.448760     4.433843     9.072440
H    -7.049819    -3.457027    -3.470357
O    -7.672074    -4.069615    -3.918143
H    -7.153104    -4.499703    -4.628457
H     0.038889     6.133391     10.767940
O    -0.826060     6.466063     10.523675
H    -0.712586     6.896833     9.657161
H     2.557999     1.512382    -4.119606
O     3.437417     1.864617    -3.881439
H     3.757973     1.347028    -3.112712
H    -6.975055    -0.206735     7.232713
O    -7.482521     0.571810     7.515224
H    -8.107731     0.755685     6.813034
H    -2.776922    -9.858349    -0.836711
O    -2.712289    -8.916561    -0.994848
H    -3.617688    -8.548996    -0.753001
H    -10.111827     3.110086    -4.861395
O    -10.233050     2.191185    -4.586835
H    -10.439759     2.267858    -3.634445
H    -2.080238    -3.013677     4.609743
O    -2.954945    -3.453461     4.682274
H    -2.951954    -4.070067     3.924743
H    -0.200546    -7.970995     2.471377
O     0.627359    -7.762218     2.917400
H     1.343504    -8.057840     2.327905
H     6.698948    -2.372367     6.362381
O     7.146879    -3.082058     5.897242
H     6.516255    -3.816421     5.859858
H    -5.276878    -1.991989     6.950086
O    -5.954310    -1.492770     6.468948
H    -5.940903    -1.868882     5.559101
H     0.794512     3.050704    -7.124996
O     1.709597     2.717622    -7.187234
H     1.691251     1.965957    -7.808785
H    -3.953537     8.767805     6.683446
O    -3.954930     8.766157     5.726072
H    -4.081292     7.838690     5.458420
H    -2.086592     10.330369    -2.730686
O    -2.988579     10.511850    -3.031619
H    -2.917923     11.148368    -3.742299
H     9.395668    -4.057495     4.004628
O     9.118303    -4.735849     4.628013
H     8.690490    -4.263865     5.353400
H    -0.779152    -5.987188    -5.841459
O    -0.070013    -6.554953    -5.516212
H     0.760807    -6.089434    -5.738687
H     1.807630     8.287064     0.656969
O     1.502014     8.609660    -0.219633
H     2.315293     8.647362    -0.752251
H     3.456345     2.946666    -6.677724
O     4.284569     2.654858    -6.271722
H     4.043006     2.380554    -5.361699
H     3.709394     7.136865    -1.243779
O     3.914900     8.072564    -1.457759
H     4.281759     8.016478    -2.352025
H     4.346975     0.008232    -7.933338
O     4.726409     0.154538    -7.065055
H     4.546624     1.086328    -6.820152
H     6.006199     1.942343    -0.500370
O     6.569292     2.136109    -1.263706
H     7.394039     1.655506    -1.072633
H     6.649530    -8.421577    -1.641393
O     7.284206    -8.211020    -2.379233
H     7.647463    -9.045744    -2.670088
H    -5.341152    -5.749480    -5.414550
O    -5.961439    -5.077794    -5.724766
H    -5.415197    -4.314348    -5.972311
H     0.685749     7.180819     7.596537
O    -0.214616     7.209161     7.958908
H    -0.772705     7.224333     7.143223
H    -8.933440    -2.813765    -4.079540
O    -9.456444    -2.005542    -3.914933
H    -9.167083    -1.343492    -4.546430
H    -2.447668    -5.971472    -2.152324
O    -3.325079    -5.681377    -2.418323
H    -3.515599    -6.052261    -3.305295
H    -3.025935    -5.879946    -5.412381
O    -3.630449    -6.488689    -4.942017
H    -3.149656    -7.309428    -4.776465
H    -1.391828     3.835247    -7.003611
O    -0.896877     3.051957    -6.706959
H    -1.153861     2.270624    -7.247889
H    -0.282729     0.371229    -8.142781
O    -1.157736     0.576104    -7.768055
H    -1.142219     0.173310    -6.869157
H    -10.453211     4.078639    -2.701154
O    -10.520400     3.298880    -2.134809
H    -9.688570     3.267798    -1.630054
H     4.564229     4.089327     1.701712
O     4.355583     3.168464     1.979885
H     5.069985     2.591823     1.696308
H     6.449707     1.410386    -4.245988
O     6.147963     0.786055    -3.551879
H     6.182027     1.280563    -2.707601
H     9.604370    -2.218709    -0.968768
O     9.878591    -2.003027    -1.869007
H     9.076855    -1.664176    -2.309823
H     9.933439    -3.311696    -3.139727
O     9.664405    -3.962983    -3.814564
H     9.268180    -3.454782    -4.532994
H    -7.735448    -8.553036    -1.657175
O    -6.996249    -7.960775    -1.787053
H    -7.371670    -7.046334    -1.777231
H     4.128294     6.094223    -3.836597
O     4.789824     6.795400    -3.754555
H     5.626219     6.341291    -3.618605
H     0.051690    -8.153234    -5.229202
O     0.077244    -9.137559    -5.097815
H     0.222456    -9.499470    -5.971974
H    -2.370555    -8.656806    -2.722762
O    -2.139131    -8.393039    -3.632685
H    -1.493557    -9.011126    -3.993916
H     2.140183    -10.801814    -3.519090
O     2.096473    -9.847185    -3.494196
H     1.309738    -9.574580    -4.018422
H     6.799520     3.343260    -4.600681
O     6.855475     2.666078    -5.302711
H     6.060138     2.799524    -5.840414
H    -3.567683    -3.712960     7.720495
O    -3.682288    -2.924161     7.192005
H    -3.434788    -3.162597     6.272378
H    -0.539626    -3.456329    -6.707341
O     0.074574    -2.712969    -6.831612
H    -0.395101    -1.964063    -6.428771
H     0.643934     0.467737     8.743221
O     0.649398    -0.246483     8.102010
H    -0.273178    -0.535123     8.016857
H    -5.866759     7.390403    -4.234039
O    -6.370813     6.772153    -4.795020
H    -6.657508     6.040405    -4.204217
H    -4.307854     9.122372    -3.251671
O    -4.842944     8.325841    -3.145341
H    -4.433480     7.846010    -2.407101
H    -9.745814     5.822129    -4.622163
O    -10.278439     5.017376    -4.457306
H    -11.161549     5.219267    -4.768426
H     2.766892     6.522946     6.128635
O     1.807152     6.620159     6.229276
H     1.462703     5.706972     6.127768
H     4.784479     8.557946     0.067572
O     5.104864     8.558200     0.987421
H     5.511305     7.693428     1.116855
H     4.100933    -7.412298    -4.368145
O     3.342426    -7.696454    -4.909914
H     3.060510    -8.536595    -4.533144
H     0.370815     8.670083     4.231944
O     1.047578     8.025473     4.000980
H     1.276326     7.531624     4.814475
H     5.203777     4.203530    -3.178522
O     6.165348     4.173689    -3.128726
H     6.376452     3.591302    -2.382153
H    -2.579550    -1.535239     7.571757
O    -2.068391    -0.742298     7.791235
H    -2.693160    -0.116297     8.167543
H    -9.060972     7.960065    -4.120579
O    -8.998599     7.376853    -4.878487
H    -8.041926     7.213332    -5.015698
H     3.503853    -8.969389     1.063569
O     2.828586    -8.338152     1.317458
H     3.304302    -7.532853     1.595202
H     3.570014     8.182429     1.816363
O     2.779177     7.619751     1.930114
H     2.335962     7.854500     2.758173
N    -3.829191    -0.561227    -7.093386
H    -4.577532     0.030586    -7.205996
H    -3.127540    -0.237184    -7.674143
