21
Coordinates from ORCA-job grain_mol_opt.QMRegion
  H   7.83723265487312     -1.65742378902591     -4.10757589779897
  O   7.63074208489621     -1.32451268932933     -3.20154372114007
  H   7.09849405790687     -0.49569399615312     -3.34087965728951
  H   9.44385824741666      0.65950021819520     -0.66144234665750
  O   8.52699439365587      0.63507006322713     -0.32609772600828
  H   8.40031117272933     -0.25702054230733      0.02930176179853
  H   7.94094478879558     -3.05460547333467      0.36277277452991
  O   8.38922418840698     -2.21085110828903      0.59657041675583
  H   8.34656691423960     -2.22045700980815      1.56493049227818
  H   5.86406007839048      1.96793185649007     -0.60607959597104
  O   6.51869062631339      2.16314026396369     -1.28918531719603
  H   7.31708879147557      1.68109178051973     -0.98538764712797
  H   9.61541980586051     -2.22724963655070     -0.95615360285643
  O   9.89050881994427     -2.03371706382832     -1.86986616045949
  H   9.08556245886802     -1.62774816025045     -2.26880929294658
  H   9.92116823458761     -3.41090882029000     -3.19596618028606
  O   9.72380017682842     -4.05576724543265     -3.90129856366810
  H   9.23511504306684     -3.55182615031822     -4.56663641714830
  O   11.09723923617237      0.40152375949881     -1.42722674582781
  H   10.85632841318211     -0.51522789320886     -1.68470920966162
  H   11.23119764270154      0.86477707736610     -2.25937842719773
