27
Coordinates from ORCA-job grain_mol_opt.QMRegion
  H   -4.55956822490242     -5.25059051524140     -1.58472569044920
  O   -5.28779870144288     -4.92999188282818     -1.01493207510547
  H   -5.01615676336688     -5.25651070401553     -0.13023182473030
  H   -5.18467039696599     -5.24747713563950      1.87467153474881
  O   -4.50263087857580     -5.83490781678177      1.48776714584234
  H   -3.66681163843654     -5.37757636602060      1.73760275824318
  H   -5.83122538460564     -3.27311148357581      1.34461952080229
  O   -6.27190206232786     -3.80703410354535      2.06197726615396
  H   -6.03007633816376     -3.32202740965265      2.88307165874639
  H   -5.36991936968393     -3.10095780624806     -0.63427324894915
  O   -5.18030822634154     -2.42558462120374      0.04451898950630
  H   -5.72263709780041     -1.63424122724450     -0.16639477792285
  H   -7.98205077826441     -3.53191287894108      0.84828818946612
  O   -8.71981623362298     -3.59538049851912      0.22539296132402
  H   -8.43372719911042     -4.25586438487684     -0.45333972826678
  H   -5.75929129953457     -8.22103016936116     -0.21739793754542
  O   -4.85908034191461     -8.30685529187480      0.16344888917160
  H   -4.74258471872555     -7.46884314138944      0.63722643856289
  H   -6.90075223367184     -5.27298976331875     -1.48931054981434
  O   -7.86636554255354     -5.37765407922869     -1.65838386514242
  H   -7.97264071527756     -5.00671730018873     -2.56245676026315
  H   -7.73365122569135     -7.37908593719757      0.48648157748580
  O   -7.50428780142231     -7.84421354100861     -0.33876732905041
  H   -7.75222889680609     -7.19555616107126     -1.01947244561342
  O   -8.17990397270332     -6.13611220283635      1.95191656524157
  H   -7.52473265272953     -5.44606605380961      2.13148973552100
  H   -8.91555076354084     -5.62977262624192      1.58474275412677
