39
Coordinates from ORCA-job grain_mol_opt.QMRegion
  H   3.42163433126392     -5.80755616987835     -0.62315759832366
  O   4.24365686170030     -5.54416252472615     -1.04971124973515
  H   4.37889927892790     -4.61158340378731     -0.77473295074527
  H   5.03305034054107     -6.27700147236375     -2.42656518888888
  O   5.36757286418987     -6.67971537377112     -3.25497921889220
  H   6.30926866111691     -6.48309327787029     -3.34642527242885
  H   8.69413160923234     -4.84925184820804     -3.69753689409723
  O   8.00886425628995     -5.46665207227099     -3.34123485690862
  H   8.43694167305263     -5.84392061415650     -2.55065670310816
  H   6.80392750216058     -4.07783240215732     -0.85897851201264
  O   7.16243078656577     -4.40986196093107      0.00395599485326
  H   7.88733728403047     -5.00923841493298     -0.24543131828370
  H   6.27956966122372     -5.84738113432893      0.67796568589217
  O   6.06407729419319     -6.59932128574515      1.27337560011544
  H   5.16944754075518     -6.36100177393822      1.59720384743799
  H   5.49062262581903     -7.95002991594766      0.26800887039946
  O   5.21065081261871     -8.74105986595312     -0.24524620266717
  H   4.48410978813618     -8.41317178251868     -0.81698135286300
  H   6.73777637992977     -5.81089114326331      2.72745817952432
  O   6.81541016228759     -5.14404404462966      3.43701420557396
  H   7.67469699167265     -5.26866564132166      3.88332224812603
  H   6.80933167848038     -2.71067919426908     -2.66522092657934
  O   6.35790834537436     -3.53515603339375     -2.37451870176364
  H   6.83142919430203     -4.24857429606112     -2.85791573818462
  H   7.89432008656966     -2.87776339489044      0.46517911038387
  O   8.40440248667789     -2.08312731822179      0.73287986686371
  H   8.31188087309544     -2.09521354779999      1.69903514419496
  H   6.65945027985742     -8.80325228254623     -1.11741221681288
  O   7.56490705332118     -8.73605001662006     -1.52884534816192
  H   7.99117365164084     -9.57021465919919     -1.31503403413533
  H   9.69345620398336     -2.07411558177800     -0.90530463032382
  O   9.92998690572343     -1.76873887128373     -1.79759142619463
  H   9.06588099540915     -1.55242586169702     -2.20355499743113
  H   10.06174882179014     -3.06397231318947     -3.27642287034241
  O   9.90223260085098     -3.64580490042643     -4.04404070337496
  H   9.47038434614871     -3.07947255710207     -4.70484525716987
  O   8.84438937150572     -6.48685784973365     -0.85105474611885
  H   9.75895074790354     -6.66732037920317     -0.62085245174310
  H   8.40508381010587     -7.37138687042847     -0.98252012901929
