30

H    -0.945606     0.573301     5.993622
O    -0.661242     0.055669     5.222332
H     0.037950    -0.564794     5.509568
H     1.928051    -3.744616     4.128691
O     1.732665    -4.197705     4.976998
H     2.310317    -3.739610     5.613413
H     4.147431    -2.510358     5.828674
O     3.845960    -3.176772     6.474410
H     4.370031    -3.971223     6.243989
H     4.978314    -2.241910     3.645851
O     4.987000    -1.553625     4.348110
H     4.201003    -0.978357     4.160855
H     2.011451    -0.861738     5.071198
O     1.486918    -1.385169     5.714286
H     1.642151    -0.979508     6.575767
H     3.948657    -0.286509     7.625092
O     3.958628     0.442963     6.967453
H     4.873158     0.622974     6.704413
H     1.936661     2.387286     8.562792
O     2.679689     2.622518     7.991710
H     3.117845     1.778781     7.740550
H     6.577183    -2.311243     5.979219
O     7.161348    -3.071505     5.886379
H     6.556690    -3.825666     5.860291
H     0.582975     0.394531     8.779773
O     0.604702    -0.456151     8.323466
H    -0.337206    -0.678805     8.184640
N     3.404775    -1.571490     8.707116
H     3.517882    -2.307201     8.075789
H     2.447219    -1.445371     8.783802
