39

H    -3.002826    -1.838063    -3.180074
O    -2.561737    -0.955852    -3.145316
H    -3.239348    -0.305825    -3.420175
H    -1.547800    -0.816932    -4.661184
O    -0.989893    -0.559871    -5.424128
H    -0.263242    -0.041410    -5.047534
H    -3.322795     1.590981    -4.144754
O    -4.187878     1.145907    -3.937959
H    -4.377744     1.304063    -2.975853
H    -1.115553     1.590012    -3.909146
O    -1.795877     2.190544    -4.274010
H    -1.471514     2.535273    -5.132710
H    -5.130177     5.800256    -5.556908
O    -4.518489     5.036299    -5.635436
H    -3.752043     5.323014    -6.160613
H    -5.500816     3.523028    -5.605855
O    -6.013498     2.811665    -5.172619
H    -5.334725     2.294177    -4.687502
H    -5.199189    -0.102200    -4.705921
O    -5.796561    -0.821065    -4.989767
H    -6.659067    -0.386057    -5.124230
H    -7.402097     1.675806    -5.254389
O    -7.963165     0.906191    -5.030714
H    -8.874425     1.285932    -4.927301
H    -1.629269     6.297491    -6.967937
O    -2.009233     5.453830    -6.706443
H    -1.765096     5.349004    -5.735409
H    -4.077035    -3.110216    -4.920837
O    -4.198605    -3.002395    -5.893750
H    -4.733444    -2.197456    -5.955024
H    -1.224093     3.795909    -7.019078
O    -0.765880     3.004091    -6.692099
H    -0.983967     2.230403    -7.266086
H    -0.107028     0.422869    -8.246681
O    -1.001434     0.625043    -7.919182
H    -1.073470     0.133056    -7.074678
N    -3.706725     1.480261    -7.097374
H    -4.595021     1.296305    -7.415037
H    -3.118886     1.073357    -7.745446
