36

H     0.910178     4.993848     4.091034
O    -0.032548     5.235735     4.071058
H    -0.517472     4.447667     4.370178
H     1.714414     3.392046     6.878458
O     1.164613     3.948676     6.301983
H     0.337532     4.138781     6.817042
H    -1.770314     4.516869     7.516557
O    -0.852451     4.640164     7.860290
H    -0.744357     5.601610     7.998696
H    -0.681081     2.047297     7.681744
O    -1.291150     1.941789     6.931251
H    -2.158622     1.756228     7.317140
H    -0.005567     3.371095     9.015591
O     0.161428     2.439592     9.260923
H    -0.647335     2.198293     9.772731
H     1.953835     1.996960     8.495780
O     2.719435     2.243063     7.952096
H     3.176280     1.398517     7.769834
H     4.492791     1.982088     5.120789
O     3.553266     2.237186     4.986854
H     3.130281     2.105251     5.841260
H     4.206556     4.748435     6.108100
O     4.239820     5.495453     5.498799
H     3.641077     5.190990     4.762661
H     0.156729     5.725708     10.438009
O    -0.620638     6.265457     10.638121
H    -0.719672     6.809726     9.840514
H     0.491182     7.443407     7.703239
O    -0.440833     7.396690     7.968805
H    -0.890569     7.316503     7.089993
H     2.830937     6.601003     6.171595
O     1.878548     6.666932     6.373591
H     1.577485     5.746755     6.213062
N     1.956279     5.169476     9.244067
H     2.055198     5.696466     8.438133
H     2.520253     4.399962     9.105120
