36
Coordinates from ORCA-job grain_mol_opt.QMRegion
  H   -3.54351953996315      6.40878313188793     -0.46115068649323
  O   -3.34377818816056      7.09780736326673     -1.16014546862181
  H   -3.26804316905660      7.94659003221817     -0.68226721369050
  H   -4.01396722220192      5.81176877861793     -2.50276452540943
  O   -4.28696495286199      4.97175905173844     -2.87835252993641
  H   -4.09529194066949      4.98385703970288     -3.85089191772960
  H   -0.33152448655500      6.86277594331806     -2.25034635148081
  O   -1.11237966962000      7.26210890314159     -2.72311706365482
  H   -1.86306097849173      7.12001605941023     -2.09622398059382
  H   -0.58164636210522      4.46270700272833     -4.04188545842580
  O   -1.39435784900744      4.97716992488130     -4.23783959446443
  H   -1.28752833743630      5.79013389358303     -3.71482001735485
  H   -5.11096944889723      5.65847937534865     -5.58216332294815
  O   -4.46429113592810      4.92698266581013     -5.54562604522702
  H   -3.71518900494255      5.12883801108322     -6.14688664062064
  H   -0.62163307115629      8.90850799987294     -2.06707297055825
  O   -0.46582582780669      9.70786741710802     -1.52083249036803
  H   0.30516527318606      9.45500125951878     -0.97192346932451
  H   -1.80238508491757      9.72406698306486     -0.61288856032438
  O   -2.69656608390968      9.58013084430003     -0.18234762906861
  H   -3.05938485829185     10.43396248766919      0.06371401217294
  H   -1.88942047561979      6.25284061270966     -6.99772970357923
  O   -2.10999092598975      5.35936100693049     -6.72327995413613
  H   -1.73542039271816      5.28625837382250     -5.79671349130233
  H   -2.16292595784758     10.65232330429979     -3.14478745718329
  O   -2.85246985472667     10.50257480267151     -3.80146617367215
  H   -2.42349418271961      9.93706337688020     -4.47232990223494
  H   -5.91870369368908      7.33774404578260     -4.30112550258542
  O   -6.40362371520086      6.67894135024998     -4.82964180614732
  H   -6.68031542135168      5.97190754615591     -4.18936518731731
  H   -4.12641802945812      9.17241001096088     -3.44276002927525
  O   -4.52215791581099      8.27720858055517     -3.45529142551959
  H   -4.29973403400637      7.91044498676134     -2.58297836973023
  O   -2.16997071506268      8.15189152266578     -5.28740421847965
  H   -1.51687201809086      7.89260474268917     -4.62128994414452
  H   -3.00538522429598      7.92580793548308     -4.84178530032404
