39
Coordinates from ORCA-job grain_mol_opt.QMRegion
  H   -4.58720205855411      0.43298194916219      2.02840173398939
  O   -4.95011772319997     -0.47734895290637      2.14539211486035
  H   -4.57339114108142     -1.01169739078394      1.43054096916968
  H   -4.85799406306187      2.50360310144467      1.24366354936778
  O   -4.22930942050502      2.09810422317003      1.87935563586314
  H   -3.37650137306569      2.10145638098060      1.37122263508627
  H   -4.32358707474073      2.73531687055508      3.45750197270961
  O   -4.36839632060490      2.87887497863024      4.42934297630415
  H   -4.43906499780139      1.97321535066486      4.80323403513115
  H   -3.76096525068150     -0.06412432865562      4.93262332835960
  O   -4.36043751983620      0.42513142964896      5.55213580226344
  H   -4.98768447329621     -0.25254091132392      5.89607517098588
  H   -4.41149287791060     -2.76774908147789      4.25658885123429
  O   -5.28612166381013     -2.37751346795425      4.05053781164461
  H   -5.07220777768397     -1.59977928369146      3.48909972382893
  H   -3.91008588314910      1.06146099502854      7.01663441778180
  O   -3.78072209167827      1.56065885047783      7.85817163403623
  H   -4.67066529730396      1.94113080355854      8.07898155466705
  H   -3.87360393605126      4.75355422461014      7.86706859961763
  O   -3.31092618416851      4.32578577059378      7.17801846637105
  H   -3.46737657512984      3.36990496705849      7.27928153315586
  H   -6.47842055857715     -0.20924539019390      1.02777978678599
  O   -6.71313814969281     -0.25779434916066      0.08839317160005
  H   -7.59670967291660     -0.63316514089508      0.01018412030715
  H   -6.20689884385689      3.28161958762552      7.41770114589898
  O   -6.08831300707548      2.77087593601935      8.24428158669510
  H   -6.72702484594344      2.02430402755433      8.15854052642721
  H   -5.51673060361045      3.83155262218026      5.21136087806250
  O   -6.28138503390799      4.10821524592055      5.77882452742108
  H   -6.34856350872682      5.06203216234993      5.68015300620638
  H   -7.13613288399733     -0.18078115774943      7.39761708451432
  O   -7.62595883700851      0.64515955216586      7.52656484101440
  H   -7.78120371102983      0.96349670945230      6.61419385624519
  H   -5.15451744794394     -2.05507962817466      7.00361683269929
  O   -5.88363136559131     -1.56457368692929      6.58000656486200
  H   -5.90444584392806     -1.95104672520071      5.67615134436573
  O   -7.74175183969996      1.81790047128783      4.95600196198899
  H   -7.09936200803316      1.42049251711576      4.35996380197692
  H   -7.39689108958724      2.71729947961388      5.11391904692065
