36
Coordinates from ORCA-job grain_mol_opt.QMRegion
  H   -4.57535681817895     -5.15326520033457     -1.49535341044095
  O   -5.31321684786289     -4.86178844270149     -0.91617179241929
  H   -5.06172103384498     -5.20038126639735     -0.03310570165649
  H   -5.79275518056709     -8.11346778760751     -0.24947861840187
  O   -5.08091289765470     -8.23650214205122      0.40973451453890
  H   -4.98860668222071     -7.37482645751482      0.85624205150062
  H   -6.82391067617951     -5.29816295609240     -1.32310150406878
  O   -7.74068723790130     -5.58559578498150     -1.58663746214929
  H   -7.84767382207676     -5.14920182215506     -2.46341127995824
  H   -0.90077026229067     -7.18571982201460     -3.06993678111912
  O   -0.46154211409506     -6.46817744102453     -2.57856415411393
  H   0.44284481414584     -6.37372865676064     -2.97320431001296
  H   -6.96918463557144     -3.46432670918505     -3.42326953878943
  O   -7.57001711381176     -4.10848979626017     -3.86913626588894
  H   -7.05000585755298     -4.44107594958108     -4.63361732714654
  H   -2.68177245089278     -9.79846121133855     -0.52058753182937
  O   -2.79297682429862     -8.87567931724560     -0.76366041908124
  H   -3.69734763785012     -8.63685815783487     -0.41665918636876
  H   -5.34987255815568     -5.72783295279776     -5.63789669009030
  O   -5.95716023112215     -5.02464616414511     -5.91049894152669
  H   -5.35123277153018     -4.27017993733986     -6.07389218310123
  H   -2.39872681364188     -5.83980108822866     -2.19639850129479
  O   -3.31848025673966     -5.70508854892550     -2.46177181349755
  H   -3.40673636323081     -6.01251933869730     -3.39312911153781
  H   -2.93751193999709     -5.85249167660943     -5.51455108147184
  O   -3.51831626388191     -6.49710214217130     -5.05483755860834
  H   -2.94349090903605     -7.27143486527545     -4.88256199926201
  H   -7.60378852440765     -8.66827910440883     -1.65369377434117
  O   -6.87034585924084     -8.05158020726688     -1.72835941894727
  H   -7.29408660254788     -7.13600977801058     -1.73811261914690
  H   -2.82415737956571     -8.78112677054885     -3.34042993525838
  O   -2.05004782113999     -8.39404482906179     -3.79543849191618
  H   -1.52528877970113     -9.10196097751502     -4.18891083827433
  O   -4.78078369930682     -9.03498514428948     -3.42742427493306
  H   -5.04450862003867     -8.72911847991444     -4.30038182014542
  H   -5.45936402677302     -8.65597185836791     -2.83538710470556
