603

H     0.203970     3.009612    -0.674732
O     0.726447     2.338052    -1.164015
H     1.665597     2.468291    -0.890514
H    -0.071984    -1.300350     3.186624
O     0.318589    -0.604417     2.635758
H    -0.157640     0.211141     2.864566
H    -2.395612     2.390871    -0.527138
O    -2.184775     1.926674     0.300214
H    -2.199732     0.977180     0.082792
H    -4.659419     0.546873     2.205089
O    -4.977029    -0.386275     2.224149
H    -4.471133    -0.868874     1.562179
H     0.066474    -0.318703     0.978971
O    -0.131856    -0.088305     0.050527
H     0.209149     0.806985    -0.075724
H    -0.150114    -3.566236     3.829744
O    -0.429372    -2.733180     4.244126
H     0.216854    -2.557341     4.944591
H    -4.882902     2.524410     1.338665
O    -4.243712     2.118763     1.956233
H    -3.400656     2.097927     1.444237
H    -3.245340     3.866135    -2.214530
O    -2.508660     3.268972    -1.980711
H    -2.149477     2.976826    -2.838184
H    -0.122202    -3.817520     0.556312
O     0.216907    -2.996427     0.967612
H    -0.570121    -2.508566     1.277712
H    -2.374021    -1.537025     2.507442
O    -2.186711    -2.009132     1.669390
H    -2.443896    -1.426157     0.936322
H     2.077726    -1.464229    -1.080642
O     2.307972    -1.714399    -0.162118
H     1.518144    -2.139825     0.222473
H    -1.386088     1.823060     1.925522
O    -1.480003     1.430935     2.803729
H    -1.464323     2.147358     3.464355
H     0.211641    -2.732807    -1.527306
O    -0.542472    -2.119018    -1.588112
H    -0.364125    -1.390721    -0.955716
H    -3.433020    -2.943906    -0.343666
O    -2.717207    -3.438007    -0.764630
H    -2.005721    -2.809565    -0.984467
H     2.776398     0.133558     2.957922
O     2.874647    -0.042589     3.920997
H     2.966695     0.852968     4.319525
H    -3.526686     6.360660    -0.561293
O    -3.288704     7.017879    -1.266633
H    -3.146327     7.866484    -0.802729
H     3.905129     0.576496     1.207244
O     2.954511     0.395638     1.325044
H     2.717681    -0.361502     0.751669
H    -5.779028     0.815852    -1.582787
O    -4.868379     1.144117    -1.460592
H    -4.978707     1.976390    -0.954867
H    -1.208396     5.396972     2.197679
O    -1.833395     4.648902     2.086453
H    -1.910803     4.236448     2.952017
H     3.496120     2.750130     0.430758
O     3.245637     2.700030    -0.507352
H     3.581311     1.856435    -0.852906
H     1.488101    -4.723377    -2.196380
O     1.558003    -3.947734    -1.621736
H     2.353882    -3.491605    -1.975984
H    -0.918756    -0.115493    -2.514938
O    -0.284204     0.531044    -2.849835
H    -0.021156     1.121924    -2.119907
H     1.702123    -4.703337    -0.121696
O     1.807691    -5.334468     0.626707
H     1.345528    -6.147917     0.335943
H    -1.216113    -3.297927    -2.837200
O    -1.056566    -3.977497    -3.506311
H    -0.912558    -4.822171    -3.036098
H    -2.776847     3.326371     4.707607
O    -1.795678     3.323098     4.673099
H    -1.502520     2.927432     5.512160
H     0.965508     5.047532     4.065588
O     0.019353     5.279844     4.116451
H    -0.452163     4.478389     4.380372
H    -1.728828    -4.669563    -0.313369
O    -0.963798    -5.208141    -0.024591
H    -1.310648    -5.890320     0.559580
H    -3.916067     5.798046    -2.611823
O    -4.266134     4.961600    -2.936555
H    -4.111360     4.921083    -3.904503
H    -2.427723    -3.691552     1.989017
O    -2.446181    -4.593537     2.369946
H    -1.506297    -4.830423     2.512594
H    -4.694721    -3.015733    -2.850230
O    -3.843405    -3.252409    -3.256913
H    -3.510539    -4.040874    -2.783602
H     0.343033     1.393561     4.631034
O     0.848038     2.151564     4.291160
H     0.898197     2.815241     4.993531
H    -4.652506    -5.197318    -1.506789
O    -5.354762    -4.839523    -0.936413
H    -5.141823    -5.187016    -0.049306
H     2.327755    -6.527154    -3.968220
O     1.989011    -6.193092    -3.117532
H     2.425008    -6.760243    -2.449643
H     0.407137    -3.359493    -4.013744
O     1.312492    -3.102397    -4.288815
H     1.205606    -2.477625    -5.023008
H     1.967834    -1.747981     3.019449
O     2.121874    -2.680625     2.808961
H     1.436251    -2.898481     2.143291
H    -3.018073    -1.849130    -3.167628
O    -2.589156    -0.964716    -3.115312
H    -3.239602    -0.317546    -3.442934
H    -3.187523     4.967538     1.071394
O    -3.969620     5.337279     0.614425
H    -4.384365     5.900455     1.316753
H     0.879306     2.255930     2.600142
O     0.979264     2.243674     1.628900
H     1.707220     1.620326     1.469218
H     0.192986     5.635950    -0.772229
O     0.713350     6.294080    -1.286862
H     0.856897     7.097808    -0.737007
H     0.346360     7.038355     2.566494
O    -0.016305     6.651779     1.752188
H     0.648004     5.979735     1.495121
H    -2.476764     0.223055     3.365787
O    -2.698302    -0.587737     3.876025
H    -1.937705    -0.622528     4.498106
H    -0.890126     0.580456     6.047048
O    -0.616678     0.055340     5.276221
H     0.097317    -0.545781     5.566919
H     0.712682    -4.996403     2.040770
O     0.169701    -5.100307     2.845627
H     0.315193    -6.018666     3.124849
H    -2.117074    -8.100600     0.531033
O    -1.794189    -7.607109     1.312439
H    -2.579969    -7.293066     1.767417
H    -0.377720     6.831437    -2.348499
O    -1.124762     7.246982    -2.850785
H    -1.914108     7.125454    -2.285337
H    -1.110662     4.297704     0.569645
O    -0.738459     4.351683    -0.327268
H    -1.445496     4.106260    -0.957310
H    -4.406127     2.756398     3.514561
O    -4.404502     2.933559     4.477845
H    -4.487505     2.053437     4.893248
H     2.027491    -3.568701     4.294601
O     1.963466    -4.034877     5.151124
H     2.471504    -3.494258     5.777679
H     4.691125    -3.205534     0.885836
O     4.529705    -3.136988    -0.080910
H     3.670990    -2.660050    -0.166748
H    -2.720585    -0.773981    -1.320244
O    -3.048140    -0.497423    -0.448422
H    -3.848345     0.027559    -0.658636
H    -1.533613    -0.868833    -4.477772
O    -1.009035    -0.691897    -5.283911
H    -0.331874    -0.051487    -4.998625
H     1.806934    -1.765042    -3.302542
O     1.893935    -0.993262    -2.710499
H     1.111761    -0.425639    -2.852551
H     3.666028    -3.121120     2.597197
O     4.625003    -3.350398     2.525744
H     4.680162    -4.309600     2.658987
H     3.428885    -6.115928     3.190777
O     3.783934    -5.921891     2.288902
H     3.046468    -5.579383     1.744013
H    -3.343646     1.565630    -4.161586
O    -4.186671     1.093632    -3.967561
H    -4.405398     1.247119    -3.012028
H    -5.079518     4.132490     0.064830
O    -5.518082     3.265734    -0.033674
H    -6.448887     3.383436    -0.314530
H     6.735436    -1.208046    -1.333134
O     5.964885    -1.055410    -0.779537
H     5.546000    -1.921788    -0.576667
H     4.596061    -3.204013    -2.422689
O     3.727809    -3.035575    -2.839117
H     3.730648    -3.660502    -3.590738
H     4.438416    -2.270952     5.661986
O     4.095346    -2.731171     6.458230
H     4.431008    -3.636513     6.382931
H    -0.749834     6.357723     5.056017
O    -1.346468     6.937327     5.590155
H    -1.359849     7.811288     5.142572
H     4.704283    -0.161734    -1.439343
O     3.936816     0.379932    -1.703433
H     3.243971    -0.222192    -2.029089
H    -0.740875     4.479579    -4.043344
O    -1.524772     5.019667    -4.254609
H    -1.373524     5.889796    -3.838764
H     0.661830     3.168517    -2.655673
O     0.665846     3.537846    -3.567355
H     0.718009     2.771108    -4.147675
H    -5.381429    -5.196114     1.858419
O    -4.685128    -5.792923     1.505957
H    -3.844249    -5.375924     1.774082
H     7.880922    -1.736547    -4.000222
O     7.623335    -1.417198    -3.101663
H     7.137537    -0.574044    -3.265068
H     3.692255    -5.129524    -5.233476
O     4.451383    -4.751993    -4.752061
H     4.841075    -5.458881    -4.204827
H    -3.780618     0.037379     4.961372
O    -4.381181     0.506058     5.590657
H    -5.041211    -0.149852     5.887741
H     3.465356    -5.962555    -0.453420
O     4.338092    -5.718233    -0.773199
H     4.415092    -4.754950    -0.636421
H     5.000697    -0.379843    -4.137379
O     4.457746    -1.092860    -4.513457
H     4.148331    -1.675617    -3.788154
H    -1.167076     1.524734    -3.925607
O    -1.820998     2.136627    -4.318613
H    -1.460296     2.472384    -5.162364
H     4.885319    -6.355361    -2.247630
O     5.216806    -6.687372    -3.111053
H     6.035585    -7.165899    -2.921523
H     8.740094    -5.128802    -2.860847
O     8.049618    -5.543394    -2.298713
H     8.084550    -6.501217    -2.395033
H     2.340889     4.706612     0.442747
O     1.761365     4.694005     1.213904
H     1.404444     3.774214     1.298258
H    -4.412335    -2.619888     4.277184
O    -5.306435    -2.282049     4.072308
H    -5.169737    -1.504632     3.491787
H    -5.844004    -3.201353     1.368248
O    -6.306959    -3.753574     2.040323
H    -6.117928    -3.312389     2.887879
H     1.691229     3.501151     6.862516
O     1.067910     4.012676     6.325229
H     0.285359     4.170133     6.896198
H     5.003864    -2.160494     3.655332
O     5.024260    -1.437692     4.314540
H     4.212639    -0.882381     4.153869
H     2.393286    -5.558697     4.902774
O     2.772994    -6.444466     4.648920
H     2.027866    -7.027163     4.479338
H     2.263613    -4.695525    -6.733289
O     2.108062    -5.127583    -5.883463
H     1.810105    -4.399307    -5.284986
H     6.441446    -4.123689    -0.452495
O     7.193863    -4.524379     0.014154
H     7.701381    -4.951827    -0.703794
H    -1.720181     4.529177     7.694996
O    -0.821210     4.629906     8.079379
H    -0.640080     5.589199     8.096809
H    -5.118899     5.638220    -5.608912
O    -4.511539     4.874340    -5.624589
H    -3.754269     5.085334    -6.191950
H     3.370200    -2.693562    -8.444447
O     3.265905    -3.177049    -7.603865
H     4.161033    -3.160953    -7.210331
H    -0.658110     8.794666    -2.316142
O    -0.535413     9.626556    -1.802943
H     0.227422     9.456540    -1.225547
H     2.069838    -0.891887     5.242686
O     1.496701    -1.413169     5.833893
H     1.591560    -1.061986     6.728717
H     5.203648    -2.079790    -5.660741
O     5.554208    -2.852621    -6.167536
H     5.272925    -3.637186    -5.648197
H     5.698186    -5.198560     4.746295
O     5.176090    -5.107578     5.572497
H     4.454790    -5.740425     5.491798
H    -3.969984     1.180848     7.025783
O    -3.777544     1.662685     7.866033
H    -4.653475     2.050311     8.124456
H    -1.849265     9.593367    -0.788607
O    -2.709643     9.470217    -0.313095
H    -3.320726     10.096405    -0.704797
H    -5.947643     4.653454    -2.944137
O    -6.856596     4.531659    -3.286689
H    -6.766910     3.824704    -3.958854
H     0.093201    -7.086493    -1.068384
O     0.557497    -7.519455    -0.319591
H    -0.120288    -7.709021     0.332292
H    -7.636842     3.762197    -1.971551
O    -7.897932     3.180363    -1.227355
H    -7.754913     2.269379    -1.560414
H     3.977732    -0.859220     7.016577
O     3.986198     0.104847     7.000534
H     4.798319     0.391719     6.566529
H     2.260026     5.771315    -1.197170
O     3.195173     5.479176    -1.080249
H     3.372409     4.933977    -1.869984
H     6.551935    -5.941925     0.736648
O     6.183444    -6.674309     1.276061
H     5.278988    -6.395533     1.500862
H    -3.863700     4.769658     7.773759
O    -3.297549     4.302075     7.117709
H    -3.490747     3.359481     7.235320
H     5.763099    -7.961805     0.218224
O     5.474123    -8.654036    -0.413249
H     4.645735    -8.330318    -0.810480
H    -0.552821     2.081292     7.704157
O    -1.186510     2.011304     6.969934
H    -2.054729     1.872669     7.368086
H    -6.380344    -0.128444     1.091090
O    -6.701750    -0.219377     0.179208
H    -7.620700    -0.489114     0.200849
H    -5.371643    -3.083432    -0.537837
O    -5.118262    -2.376427     0.081913
H    -5.689003    -1.605055    -0.109822
H     4.320197     5.563441     0.303619
O     4.653750     5.670681     1.208196
H     3.959359     6.184478     1.656553
H    -9.044305    -1.775904    -2.210469
O    -8.494579    -1.569541    -1.427091
H    -8.622414    -2.300822    -0.783269
H    -5.525476     3.416882    -5.523944
O    -6.042236     2.708056    -5.105086
H    -5.375685     2.126296    -4.686796
H     3.214669    -0.993447    -5.539214
O     2.370624    -1.174463    -6.018111
H     2.603928    -1.919153    -6.620837
H     8.112632    -1.410367    -5.997750
O     8.121859    -2.269137    -5.531266
H     7.266519    -2.672104    -5.781213
H     7.610536     0.929122    -6.301438
O     7.421990     0.074887    -6.701968
H     6.439928     0.025094    -6.745716
H    -7.859752    -3.700073     0.986644
O    -8.538016    -3.598047     0.301326
H    -8.440719    -4.362536    -0.293973
H    -2.404800     8.730726     1.256369
O    -2.253951     8.147493     2.013509
H    -1.483658     7.592975     1.794634
H    -4.440598     6.445840     3.477855
O    -4.611245     6.865258     2.618163
H    -3.848038     7.450411     2.473988
H     3.401358     3.405295    -3.578554
O     3.246817     4.374974    -3.490623
H     2.282479     4.439159    -3.600229
H    -6.117417    -1.644152    -3.401829
O    -6.199054    -2.218739    -2.614563
H    -6.982610    -1.908550    -2.106570
H     6.471064     1.067101     4.754641
O     6.077155     1.610959     5.453770
H     6.265238     2.527470     5.156042
H     1.362973     1.665383    -5.815457
O     1.176882     1.068202    -5.058887
H     1.554051     0.212485    -5.326013
H    -2.483364     3.024035     10.489063
O    -2.271517     2.114402     10.222283
H    -2.869514     1.909607     9.491586
H     7.629948    -0.492308     3.108720
O     6.879965     0.084298     3.274574
H     6.188101    -0.513528     3.658389
H    -5.659661    -8.074038    -0.614071
O    -4.924161    -8.137881     0.032035
H    -4.927799    -7.317131     0.548561
H    -5.179763    -0.167416    -4.685062
O    -5.795252    -0.881214    -4.923180
H    -6.634347    -0.441234    -5.121551
H     1.837680    -0.227456    -7.446827
O     1.370619     0.184513    -8.204199
H     1.350173    -0.516810    -8.875963
H     5.003515    -1.487041    -9.291569
O     4.059735    -1.230527    -9.450862
H     3.975305    -1.156169    -10.404577
H     7.566308    -2.557758     4.240853
O     7.712474    -2.600506     3.281572
H     7.219332    -3.393399     3.015420
H     6.722308    -5.892337     2.749556
O     6.784011    -5.212493     3.446250
H     7.660303    -5.294205     3.863936
H    -1.817582     8.957608     3.458524
O    -1.569551     9.268797     4.354518
H    -2.418129     9.404690     4.809379
H    -7.391866     1.515075    -5.232599
O    -7.966210     0.772321    -4.982267
H    -8.867981     1.172619    -4.908280
H     6.939718    -1.162583    -8.361667
O     6.389552    -1.908969    -8.621551
H     6.132924    -2.330689    -7.784463
H    -1.678344     6.173849    -7.042088
O    -2.077178     5.351634    -6.760814
H    -1.827251     5.228384    -5.796600
H     0.006140     3.360995     9.024865
O     0.203033     2.443034     9.286469
H    -0.595048     2.182743     9.795285
H     6.755116    -2.815308    -2.663262
O     6.225316    -3.557188    -2.315221
H     6.693357    -4.369562    -2.557376
H    -4.082361    -3.122935    -4.891437
O    -4.233379    -3.016029    -5.857878
H    -4.783372    -2.225008    -5.919191
H     1.985167     2.229393     8.474266
O     2.648442     2.336745     7.782855
H     3.070749     1.465737     7.673660
H    -6.908460    -5.226137    -1.327686
O    -7.824215    -5.497447    -1.570657
H    -7.958955    -5.101293    -2.456129
H    -3.823149     5.283073     5.686500
O    -3.790714     6.046945     5.089785
H    -2.856702     6.342127     5.181359
H    -7.885379     0.059451    -1.936761
O    -7.395251     0.779306    -2.356379
H    -7.625018     0.761831    -3.309086
H     5.838946     0.116842     0.434255
O     5.616419     0.842201     1.050449
H     6.127712     0.653300     1.864148
H    -6.210714     3.351028     7.400812
O    -6.082442     2.838828     8.233146
H    -6.682864     2.076981     8.150854
H     2.277983    -8.095986    -0.758348
O     2.953926    -8.087983    -1.455525
H     2.728981    -8.806688    -2.063088
H    -2.834401    -4.035205    -6.046748
O    -2.045633    -4.572844    -5.852627
H    -1.770491    -4.294461    -4.947424
H    -5.640070     3.786016     5.310529
O    -6.289074     4.187085     5.924889
H    -6.125017     5.130935     5.905012
H    -1.018532    -7.149852    -3.087771
O    -0.549508    -6.470874    -2.568833
H     0.361414    -6.409596    -2.943993
H     4.447957     2.037985     5.137884
O     3.506179     2.276471     5.016710
H     3.122637     2.299247     5.898772
H     4.114020     4.687231     6.291056
O     4.194127     5.413087     5.667849
H     3.626302     5.166832     4.898946
H     2.768216     3.630439     3.921173
O     2.590065     4.569219     3.748427
H     2.470571     4.660766     2.781336
H     9.392850     0.186356    -1.052843
O     8.588632     0.353509    -0.557674
H     8.412626    -0.462433    -0.059930
H    -2.094536     5.384181     10.638870
O    -2.816525     4.757434     10.875195
H    -3.034410     4.941516     11.789134
H     7.973636    -3.024040     0.371417
O     8.394750    -2.175614     0.620462
H     8.329586    -2.163737     1.582704
H     5.373919     3.674650     3.521581
O     6.030171     3.944648     4.185941
H     5.618093     4.666827     4.682127
H    -4.202990     5.080376     9.776224
O    -4.836489     5.225829     9.053415
H    -5.448379     4.477246     9.057036
H    -7.012762    -3.517501    -3.429628
O    -7.633566    -4.132251    -3.873683
H    -7.113476    -4.580201    -4.572401
H     0.034078     6.193254     10.752096
O    -0.830639     6.522783     10.502800
H    -0.715241     6.946964     9.633292
H     2.590660     1.450273    -4.088238
O     3.467640     1.805896    -3.851540
H     3.790435     1.295674    -3.078976
H    -6.968598    -0.178995     7.250858
O    -7.476931     0.601642     7.525605
H    -8.100472     0.779914     6.820511
H    -2.743302    -9.893724    -0.730667
O    -2.681064    -8.953374    -0.898357
H    -3.586545    -8.585379    -0.658837
H    -10.070125     3.026471    -4.889648
O    -10.186425     2.111076    -4.601850
H    -10.402170     2.202550    -3.652731
H    -2.065072    -3.005120     4.663432
O    -2.940271    -3.444254     4.736547
H    -2.934476    -4.068083     3.985304
H    -0.177094    -7.979720     2.569920
O     0.649285    -7.765584     3.015970
H     1.367635    -8.065914     2.431424
H     6.709464    -2.344995     6.432606
O     7.158490    -3.058520     5.974475
H     6.528283    -3.793405     5.941712
H    -5.268498    -1.965849     6.987324
O    -5.945024    -1.471387     6.499974
H    -5.929427    -1.855272     5.593741
H     0.831087     2.970816    -7.109801
O     1.748763     2.638656    -7.161422
H     1.733191     1.897701    -7.789437
H    -3.949424     8.792103     6.636289
O    -3.948467     8.782587     5.678963
H    -4.073723     7.852986     5.418490
H    -2.058901     10.279148    -2.786073
O    -2.960719     10.458284    -3.088892
H    -2.889377     11.087407    -3.806103
H     9.412812    -4.048958     4.095056
O     9.133105    -4.722094     4.723053
H     8.704406    -4.243943     5.443849
H    -0.738603    -6.057738    -5.771940
O    -0.032834    -6.617302    -5.433607
H     0.800938    -6.155301    -5.658831
H     1.828043     8.264916     0.628131
O     1.524052     8.579925    -0.251713
H     2.338483     8.613851    -0.782984
H     3.500047     2.869948    -6.659717
O     4.326798     2.585415    -6.246434
H     4.081474     2.311381    -5.338595
H     3.734775     7.100064    -1.258212
O     3.939852     8.034224    -1.478978
H     4.309305     7.970942    -2.371818
H     4.372364    -0.119749    -7.884041
O     4.756420     0.058887    -7.019699
H     4.576378     0.995017    -6.803862
H     6.031957     1.913250    -0.466151
O     6.596535     2.101511    -1.229580
H     7.421160     1.622702    -1.033761
H     6.682327    -8.460283    -1.521942
O     7.317233    -8.254988    -2.260682
H     7.684112    -9.091095    -2.542851
H    -5.305119    -5.842791    -5.334650
O    -5.921352    -5.172927    -5.655740
H    -5.370755    -4.406239    -5.897148
H     0.688325     7.214878     7.573899
O    -0.213023     7.245183     7.933712
H    -0.768987     7.253978     7.116481
H    -8.900428    -2.876327    -4.049929
O    -9.420185    -2.066336    -3.888075
H    -9.134713    -1.406194    -4.523404
H    -2.408882    -6.015509    -2.073448
O    -3.288182    -5.732029    -2.342073
H    -3.478047    -6.116486    -3.222445
H    -2.989712    -5.959637    -5.339123
O    -3.590080    -6.562527    -4.860867
H    -3.109057    -7.381440    -4.683580
H    -1.395846     3.662297    -6.983788
O    -0.856317     2.906644    -6.712201
H    -1.125030     2.108002    -7.230797
H    -0.416414     0.380184    -7.975183
O    -1.362038     0.586888    -7.809464
H    -1.544587     0.137281    -6.969284
H    -10.423503     4.020302    -2.731801
O    -10.490274     3.245241    -2.158682
H    -9.661038     3.223048    -1.649392
H     4.582783     4.077419     1.713823
O     4.374306     3.158585     1.999225
H     5.089859     2.580435     1.721648
H     6.483629     1.349391    -4.209487
O     6.180920     0.731909    -3.508936
H     6.213417     1.234934    -2.670000
H     9.632414    -2.249173    -0.893411
O     9.908777    -2.040839    -1.794627
H     9.107979    -1.706565    -2.240912
H     9.967505    -3.360182    -3.055196
O     9.699192    -4.017856    -3.724005
H     9.305220    -3.515962    -4.448343
H    -7.699505    -8.600455    -1.571534
O    -6.962330    -8.006627    -1.706048
H    -7.340377    -7.093792    -1.701426
H     4.160583     6.037094    -3.842756
O     4.821210     6.739170    -3.761253
H     5.657707     6.285891    -3.623081
H     0.095995    -8.223724    -5.129140
O     0.116258    -9.205388    -4.990361
H     0.269596    -9.576035    -5.859543
H    -2.335334    -8.707011    -2.625205
O    -2.102957    -8.449840    -3.537117
H    -1.456385    -9.070739    -3.891853
H     2.180938    -10.857555    -3.391040
O     2.133416    -9.902962    -3.372737
H     1.347825    -9.636349    -3.900379
H     6.833355     3.281977    -4.578393
O     6.892147     2.596681    -5.271748
H     6.098882     2.722845    -5.814830
H    -3.559829    -3.679082     7.776740
O    -3.674902    -2.895506     7.240621
H    -3.423772    -3.141363     6.324101
H    -0.760659    -3.487159    -6.711139
O    -0.128378    -2.772453    -6.901320
H    -0.492783    -2.014549    -6.402594
H     0.647283     0.511191     8.774845
O     0.654168    -0.208447     8.139711
H    -0.268187    -0.497689     8.054788
H    -5.834523     7.323807    -4.276543
O    -6.337857     6.700515    -4.832375
H    -6.625067     5.974763    -4.235109
H    -4.278859     9.065545    -3.302283
O    -4.814347     8.270099    -3.189696
H    -4.405604     7.796522    -2.447147
H    -9.713171     5.750053    -4.656650
O    -10.246334     4.946413    -4.487359
H    -11.127426     5.145569    -4.805914
H     2.773552     6.546143     6.116537
O     1.813497     6.643533     6.214271
H     1.469826     5.729496     6.118787
H     4.805414     8.532623     0.043806
O     5.122819     8.540206     0.964745
H     5.530533     7.677192     1.101616
H     4.139357    -7.472969    -4.265231
O     3.379503    -7.761204    -4.803433
H     3.101418    -8.600219    -4.421465
H     0.381286     8.676700     4.196275
O     1.058479     8.030086     3.972333
H     1.285759     7.543444     4.790507
H     5.234798     4.151670    -3.166375
O     6.196130     4.125539    -3.111186
H     6.405673     3.547211    -2.361183
H    -2.573482    -1.502509     7.612251
O    -2.062915    -0.707681     7.825774
H    -2.688162    -0.078637     8.196183
H    -9.028754     7.894104    -4.173602
O    -8.966073     7.303071    -4.925403
H    -8.009077     7.138670    -5.060434
H     3.529972    -8.986858     1.180401
O     2.853340    -8.353323     1.424951
H     3.328328    -7.546041     1.698833
H     3.587041     8.170343     1.792223
O     2.796185     7.608199     1.909492
H     2.351074     7.850101     2.734394
N     0.783837    -2.255067    -9.435861
H     0.057083    -2.265621    -10.063911
H     0.371733    -2.494496    -8.573488
