36

H    -3.515613     6.389701    -0.493119
O    -3.229257     7.033447    -1.191831
H    -3.055600     7.888421    -0.748409
H     0.191594     5.579465    -0.795838
O     0.706982     6.291147    -1.248615
H     0.862173     7.017134    -0.607254
H     0.294028     6.900944     2.739961
O    -0.013320     6.597908     1.868252
H     0.643842     5.910027     1.622050
H    -0.319750     6.990210    -2.391817
O    -1.090468     7.352010    -2.887338
H    -1.831934     7.189874    -2.261970
H    -0.845102     9.076311    -3.202753
O    -0.805855     10.059249    -3.275342
H    -0.344865     10.333681    -2.468016
H    -1.672636     9.850299    -0.321694
O    -2.607453     9.555514    -0.271437
H    -3.062921     10.094351    -0.947921
H    -2.526615     8.776953     1.360485
O    -2.338217     8.145835     2.072722
H    -1.613893     7.570647     1.775934
H    -2.385725     10.465821    -3.033079
O    -3.331282     10.589371    -2.725677
H    -3.649819     11.405345    -3.116101
H     2.006042     8.199113     0.825457
O     1.681010     8.497464    -0.059153
H     2.484564     8.508377    -0.624381
H     3.810502     7.006544    -1.164406
O     4.036713     7.953298    -1.337012
H     4.416830     7.911481    -2.231803
H     3.736545     8.174877     2.056790
O     2.936226     7.613306     2.157039
H     2.492815     7.847037     2.986762
N    -0.015747     10.444746    -0.476045
H     0.670144     9.760876    -0.238837
H     0.210522     11.222967     0.039641
