21

H    -9.127661    -1.872464    -2.218800
O    -8.522448    -1.576451    -1.515991
H    -8.522211    -2.268116    -0.815645
H    -7.765690    -3.647553     1.049443
O    -8.467662    -3.525424     0.379928
H    -8.364915    -4.283662    -0.217524
H    -6.853570    -5.219694    -1.400063
O    -7.759468    -5.491172    -1.690485
H    -7.800032    -5.083589    -2.587441
H    -6.963564    -3.413877    -3.553212
O    -7.558807    -4.064390    -3.995329
H    -7.014357    -4.489071    -4.699349
H    -9.089527    -3.145188    -4.054969
O    -9.862603    -2.653295    -3.699018
H    -10.185039    -2.110718    -4.424560
H    -7.623943    -8.615404    -1.362512
O    -6.955184    -8.081467    -1.799638
H    -7.332360    -7.170758    -1.810389
N    -10.932435    -5.103352    -2.201735
H    -10.784721    -4.309291    -2.734249
H    -10.063557    -5.294780    -1.832310
