27

H    -0.874646     0.547401     6.001060
O    -0.595766     0.040599     5.217193
H     0.117666    -0.577630     5.484945
H    -4.059228     1.229831     6.891146
O    -3.857744     1.672666     7.756775
H    -4.737432     2.047455     8.040707
H    -0.532564     2.117024     7.674065
O    -1.183854     1.964346     6.963725
H    -2.047222     2.031521     7.388023
H    -2.557529     3.034904     10.556016
O    -2.348410     2.107133     10.332388
H    -2.939641     1.905872     9.594310
H    -0.116839     3.531814     9.016409
O     0.278188     2.674269     9.279952
H    -0.438974     2.263461     9.786945
H     1.939443     2.159575     8.358458
O     2.704647     2.317926     7.784546
H     3.079169     1.434250     7.610709
H     0.805722    -0.403136     9.030383
O     0.697664    -0.230269     8.089649
H    -0.236300    -0.448123     7.953018
H    -2.763540    -1.620867     7.735989
O    -2.243800    -0.845853     8.026728
H    -2.894587    -0.133634     8.089437
N    -0.904877    -0.592974     10.576708
H    -1.326814     0.205599     10.915908
H    -1.486980    -0.846382     9.840172
