30
Coordinates from ORCA-job grain_mol_opt.QMRegion
  H   -2.37919712650546     -3.61625384898220      1.91779212589152
  O   -2.40007864016133     -4.55944817209637      2.16867978745380
  H   -1.46945769484715     -4.78073303429684      2.38049256470020
  H   -2.13122037138987     -8.12941398420859      0.38347784310266
  O   -1.78123111672405     -7.68833667483048      1.19016449952505
  H   -2.55395943579503     -7.38124705338052      1.66990101145234
  H   -5.36143091653732     -5.05312577716728      1.75363118453227
  O   -4.69529792748123     -5.75669563195862      1.50935323561486
  H   -3.83104137298351     -5.28569278773086      1.57319161421202
  H   -4.43650163793091     -2.55027637630397      4.14825806451437
  O   -5.34888885298337     -2.23457881285718      3.96741332874397
  H   -5.21911603215972     -1.44009579240190      3.40102056836243
  H   -5.86542730818236     -3.15820955669895      1.23077552334848
  O   -6.33000040813877     -3.72599692789502      1.89959121174407
  H   -6.13568504102961     -3.25512662632164      2.73682897279677
  H   -5.68961911967068     -8.10642244192520     -0.77543720726184
  O   -5.01303273796552     -8.18197075823296     -0.06326526417310
  H   -4.98433354470235     -7.30933128815753      0.36306221892903
  H   -2.08766131450305     -3.11095288679424      4.58064587977704
  O   -2.98493774568557     -3.38077424134822      4.87961791293214
  H   -3.13871834078955     -4.27667281455290      4.52674562637147
  H   -5.33660499684583     -1.98305523660319      6.97952174779915
  O   -6.00749628687287     -1.49465865267880      6.47721502128840
  H   -5.95013190270859     -1.84208987680105      5.56307299198123
  H   -3.38583783671691     -3.55012753579206      7.98601631584929
  O   -3.69336258264322     -2.88976897992165      7.36163289628283
  H   -3.34418655726839     -3.15833876523629      6.47137639577477
  O   -4.16872616592109     -5.97161995281570      4.36280965997847
  H   -4.42023717764331     -6.02825892139671      3.42235416133104
  H   -5.00521588613577     -5.93944267986502      4.83606834187400
