603

H     0.211360     3.020183    -0.673435
O     0.734856     2.354276    -1.169260
H     1.673789     2.484571    -0.897664
H    -0.057135    -1.268354     3.064454
O     0.416249    -0.571606     2.579995
H    -0.047892     0.249175     2.826482
H    -2.385873     2.393703    -0.524749
O    -2.170495     1.922692     0.297665
H    -2.187582     0.974835     0.071984
H    -4.637394     0.524326     2.194907
O    -4.954442    -0.408485     2.205183
H    -4.448353    -0.887362     1.540801
H     0.089301    -0.321978     0.954968
O    -0.112808    -0.085756     0.028106
H     0.222087     0.812338    -0.092887
H    -0.237463    -3.569921     3.688841
O    -0.617509    -2.770835     4.090980
H    -0.360113    -2.829299     5.040438
H    -4.868654     2.506843     1.348123
O    -4.225475     2.100156     1.960695
H    -3.384885     2.083074     1.444770
H    -3.243890     3.881791    -2.196050
O    -2.503762     3.286807    -1.968119
H    -2.147608     3.000359    -2.829177
H    -0.093588    -3.815266     0.502778
O     0.247730    -3.001283     0.926704
H    -0.541517    -2.515638     1.236321
H    -2.345259    -1.561013     2.475374
O    -2.161374    -2.023955     1.631873
H    -2.422821    -1.435104     0.905377
H     2.091041    -1.451229    -1.123718
O     2.327012    -1.705726    -0.207726
H     1.539236    -2.134418     0.179661
H    -1.371927     1.807108     1.919101
O    -1.455189     1.408822     2.795598
H    -1.445150     2.120752     3.460888
H     0.229489    -2.713198    -1.571557
O    -0.526759    -2.102438    -1.624209
H    -0.348201    -1.377072    -0.988796
H    -3.411748    -2.946554    -0.383309
O    -2.694945    -3.434756    -0.809590
H    -1.987103    -2.801295    -1.026218
H     2.797150     0.116607     2.922539
O     2.914503    -0.059181     3.883514
H     2.998039     0.835797     4.285350
H    -3.525477     6.361124    -0.523411
O    -3.290167     7.025370    -1.223227
H    -3.149324     7.870015    -0.751935
H     3.922992     0.578011     1.176234
O     2.973411     0.394506     1.295126
H     2.734349    -0.358048     0.716722
H    -5.768474     0.819803    -1.585711
O    -4.858474     1.149714    -1.462956
H    -4.969906     1.976854    -0.949458
H    -1.198773     5.379207     2.222779
O    -1.821877     4.630637     2.106376
H    -1.897706     4.210707     2.968463
H     3.507082     2.756906     0.421213
O     3.258234     2.715798    -0.517564
H     3.590459     1.873981    -0.870221
H     1.513717    -4.703146    -2.259328
O     1.579591    -3.927135    -1.684756
H     2.371198    -3.463223    -2.038480
H    -0.909530    -0.096022    -2.544693
O    -0.277230     0.558052    -2.869387
H    -0.016816     1.140036    -2.132229
H     1.728003    -4.694299    -0.187394
O     1.840561    -5.333067     0.553002
H     1.375201    -6.143469     0.257695
H    -1.209112    -3.276894    -2.879772
O    -1.034195    -3.958810    -3.541740
H    -0.906268    -4.806088    -3.073874
H    -2.755728     3.282705     4.718414
O    -1.774289     3.283512     4.682969
H    -1.479814     2.877355     5.516988
H     0.980499     5.018345     4.081651
O     0.034322     5.248650     4.136974
H    -0.436239     4.444397     4.394694
H    -1.700672    -4.665160    -0.371817
O    -0.933469    -5.205944    -0.091815
H    -1.279803    -5.892011     0.488219
H    -3.918522     5.815289    -2.578118
O    -4.268309     4.980877    -2.908054
H    -4.116187     4.947655    -3.876717
H    -2.397729    -3.712989     1.937840
O    -2.409574    -4.627686     2.287662
H    -1.471694    -4.852162     2.450368
H    -4.678041    -2.997717    -2.888778
O    -3.826473    -3.228419    -3.298129
H    -3.492593    -4.021520    -2.833992
H     0.365581     1.356128     4.618148
O     0.873827     2.116209     4.286257
H     0.916513     2.777909     4.990786
H    -4.629600    -5.190246    -1.563604
O    -5.330936    -4.839048    -0.988132
H    -5.114899    -5.193595    -0.104445
H     2.348428    -6.483517    -4.054031
O     2.013986    -6.156423    -3.198918
H     2.450553    -6.730771    -2.537787
H     0.481979    -3.384869    -4.009957
O     1.282902    -3.015935    -4.435089
H     0.959828    -2.643767    -5.281980
H     2.040827    -1.774561     2.937318
O     2.137817    -2.731481     2.803783
H     1.522107    -2.921293     2.065186
H    -3.001216    -1.823476    -3.202753
O    -2.580305    -0.936194    -3.138960
H    -3.238652    -0.291558    -3.454677
H    -3.179714     4.954843     1.096789
O    -3.962962     5.328056     0.644856
H    -4.377738     5.883423     1.353148
H     0.897027     2.239474     2.593310
O     0.996720     2.238243     1.622057
H     1.722405     1.614499     1.454431
H     0.194427     5.645996    -0.749911
O     0.713736     6.309716    -1.258915
H     0.854947     7.109127    -0.702491
H     0.353863     7.021123     2.600886
O    -0.009493     6.641051     1.783916
H     0.654998     5.972051     1.519762
H    -2.437420     0.261293     3.331261
O    -2.688093    -0.563378     3.809299
H    -1.926809    -0.621878     4.424590
H    -0.843430     0.619520     6.014601
O    -0.566987     0.075929     5.250266
H     0.228511    -0.430134     5.551922
H     0.724126    -5.106446     1.897056
O     0.218513    -5.171804     2.733262
H     0.323204    -6.107462     2.986052
H    -2.081525    -8.105536     0.444853
O    -1.756086    -7.619365     1.229830
H    -2.540992    -7.308593     1.688742
H    -0.382280     6.854007    -2.313529
O    -1.131000     7.273232    -2.809807
H    -1.919147     7.144157    -2.244134
H    -1.102687     4.294141     0.584117
O    -0.732202     4.357691    -0.312822
H    -1.440010     4.114724    -0.943611
H    -4.386977     2.720235     3.525661
O    -4.382193     2.889152     4.490412
H    -4.462917     2.004914     4.898249
H     1.991586    -3.599783     4.410630
O     2.110966    -4.081578     5.256198
H     2.796728    -3.547669     5.719978
H     4.713325    -3.197708     0.823548
O     4.552040    -3.121618    -0.142217
H     3.691373    -2.646326    -0.224319
H    -2.706388    -0.764319    -1.344697
O    -3.030810    -0.494742    -0.469180
H    -3.834375     0.027660    -0.672291
H    -1.609921    -0.770149    -4.627002
O    -1.105059    -0.552127    -5.431845
H    -0.396148     0.045649    -5.147284
H     1.807552    -1.718740    -3.382788
O     1.900577    -0.972870    -2.758658
H     1.121254    -0.397435    -2.886316
H     3.681094    -3.138276     2.553284
O     4.642149    -3.355939     2.465230
H     4.709317    -4.316200     2.585439
H     3.462459    -6.123598     3.106816
O     3.818005    -5.929009     2.207365
H     3.079709    -5.584723     1.663117
H    -3.340721     1.597741    -4.164592
O    -4.184068     1.125140    -3.972526
H    -4.399426     1.268475    -3.014844
H    -5.073059     4.124898     0.087485
O    -5.509598     3.257989    -0.016231
H    -6.441366     3.375054    -0.294306
H     6.750836    -1.178760    -1.383447
O     5.981133    -1.031916    -0.827303
H     5.563694    -1.900627    -0.631212
H     4.612434    -3.168684    -2.487131
O     3.742975    -2.998552    -2.899951
H     3.744780    -3.616090    -3.657133
H     4.619852    -2.325044     5.578235
O     4.313490    -2.833227     6.369496
H     4.684295    -3.724703     6.218519
H    -0.734959     6.316969     5.087421
O    -1.330544     6.890980     5.628491
H    -1.347905     7.768414     5.187915
H     4.712820    -0.137717    -1.479083
O     3.943612     0.403485    -1.738337
H     3.251100    -0.197779    -2.067565
H    -0.745249     4.515235    -4.027602
O    -1.529497     5.057016    -4.233005
H    -1.378988     5.923332    -3.809502
H     0.663394     3.196535    -2.654415
O     0.667937     3.574620    -3.562448
H     0.714444     2.811969    -4.149058
H    -5.350452    -5.218316     1.803831
O    -4.655576    -5.812743     1.443641
H    -3.813192    -5.396395     1.707356
H     7.891391    -1.681436    -4.057744
O     7.635561    -1.369931    -3.156798
H     7.146588    -0.526754    -3.311060
H     3.714543    -5.069418    -5.306841
O     4.478027    -4.695652    -4.827421
H     4.865085    -5.406946    -4.284023
H    -3.749684    -0.009093     4.949385
O    -4.351425     0.453608     5.582395
H    -5.005636    -0.208988     5.877466
H     3.492629    -5.947009    -0.538579
O     4.365999    -5.698511    -0.853927
H     4.439229    -4.735700    -0.712278
H     5.007268    -0.332408    -4.174350
O     4.472787    -1.044696    -4.563594
H     4.149383    -1.629354    -3.845622
H    -1.168815     1.562295    -3.929968
O    -1.821325     2.182469    -4.312814
H    -1.467120     2.515728    -5.159831
H     4.909900    -6.321724    -2.335998
O     5.240943    -6.644497    -3.203080
H     6.060403    -7.124198    -3.019880
H     8.760622    -5.082603    -2.949188
O     8.072437    -5.502597    -2.388610
H     8.108205    -6.459626    -2.493087
H     2.347537     4.711906     0.452084
O     1.771870     4.691513     1.225860
H     1.415746     3.770467     1.302828
H    -4.405667    -2.671029     4.232212
O    -5.298733    -2.311416     4.037105
H    -5.149463    -1.532842     3.463940
H    -5.817294    -3.222109     1.332368
O    -6.276717    -3.781114     2.000670
H    -6.088240    -3.343222     2.851435
H     1.715761     3.453574     6.863376
O     1.090377     3.966855     6.331500
H     0.308096     4.117660     6.905378
H     5.031543    -2.177303     3.600849
O     5.052978    -1.462569     4.269198
H     4.242580    -0.902567     4.110403
H     2.428781    -5.691907     4.840263
O     2.822917    -6.556796     4.566740
H     2.097759    -7.142821     4.327058
H     2.264489    -4.515194    -6.801882
O     2.099684    -5.004743    -5.986082
H     1.834552    -4.314919    -5.329235
H     6.465024    -4.102019    -0.527160
O     7.219871    -4.504292    -0.065618
H     7.726410    -4.924798    -0.788414
H    -1.694058     4.461702     7.714330
O    -0.793398     4.561774     8.096318
H    -0.615934     5.521530     8.121960
H    -5.128912     5.678099    -5.572810
O    -4.519506     4.916112    -5.595880
H    -3.764550     5.132861    -6.163968
H     3.279801    -2.522264    -8.448886
O     3.195824    -3.056070    -7.647944
H     4.073618    -3.030460    -7.221753
H    -0.667573     8.816227    -2.263739
O    -0.544545     9.644497    -1.744500
H     0.219652     9.470966    -1.170097
H     2.173193    -0.690854     5.230255
O     1.652923    -1.132064     5.929283
H     1.799393    -0.631496     6.746702
H     5.211181    -2.018787    -5.709957
O     5.557937    -2.783664    -6.233649
H     5.286662    -3.574861    -5.716659
H     5.739565    -5.222215     4.661968
O     5.218973    -5.139838     5.490779
H     4.498115    -5.772807     5.407251
H    -3.936776     1.118276     7.022322
O    -3.746304     1.599501     7.863771
H    -4.623874     1.978287     8.127113
H    -1.856014     9.599781    -0.726737
O    -2.714559     9.471066    -0.249575
H    -3.328524     10.098261    -0.635132
H    -5.949210     4.668604    -2.913986
O    -6.858454     4.548475    -3.256184
H    -6.768548     3.846705    -3.933995
H     0.124078    -7.075126    -1.151173
O     0.591450    -7.510970    -0.405252
H    -0.086259    -7.708198     0.244570
H    -7.633678     3.765404    -1.945501
O    -7.891613     3.177298    -1.205237
H    -7.747578     2.269097    -1.545829
H     4.023121    -0.906190     6.972041
O     4.023605     0.057938     6.969071
H     4.830272     0.357076     6.532762
H     2.260294     5.790161    -1.177616
O     3.196931     5.499350    -1.066643
H     3.372104     4.960667    -1.861172
H     6.583300    -5.929380     0.646134
O     6.218490    -6.665736     1.182762
H     5.312632    -6.392585     1.408172
H    -3.837290     4.698929     7.799368
O    -3.270293     4.238635     7.139176
H    -3.462366     3.294185     7.248365
H     5.797091    -7.946634     0.112003
O     5.508613    -8.633610    -0.524826
H     4.677435    -8.309780    -0.916536
H    -0.523513     2.022800     7.699581
O    -1.152420     1.947164     6.963037
H    -2.021149     1.806687     7.360074
H    -6.360511    -0.149061     1.081379
O    -6.685320    -0.230122     0.169552
H    -7.602782    -0.504685     0.191902
H    -5.350074    -3.086457    -0.575010
O    -5.095900    -2.383517     0.048980
H    -5.669448    -1.612407    -0.134454
H     4.324265     5.574067     0.315590
O     4.660549     5.673882     1.220063
H     3.966479     6.182746     1.674720
H    -9.029688    -1.773429    -2.227294
O    -8.479422    -1.571622    -1.443177
H    -8.603010    -2.309035    -0.805449
H    -5.530552     3.454282    -5.505803
O    -6.045212     2.742138    -5.090385
H    -5.376332     2.157464    -4.679157
H     3.182989    -0.887324    -5.664651
O     2.326023    -1.008515    -6.128094
H     2.411577    -1.856910    -6.602563
H     8.116893    -1.338089    -6.053520
O     8.128237    -2.202520    -5.597885
H     7.272147    -2.603964    -5.846712
H     7.617182     1.001768    -6.330376
O     7.428991     0.153305    -6.743620
H     6.447608     0.101379    -6.777389
H    -7.832678    -3.721280     0.950867
O    -8.512980    -3.615371     0.267921
H    -8.415132    -4.374576    -0.333915
H    -2.404819     8.718253     1.312317
O    -2.249966     8.129413     2.064299
H    -1.479643     7.577998     1.838066
H    -4.429980     6.409862     3.519488
O    -4.603444     6.836795     2.664094
H    -3.841709     7.424501     2.523047
H     3.400349     3.445571    -3.582065
O     3.245380     4.414383    -3.486874
H     2.279982     4.477013    -3.591613
H    -6.105567    -1.625752    -3.424895
O    -6.184685    -2.206460    -2.641753
H    -6.967538    -1.901751    -2.129713
H     6.496802     1.045176     4.723241
O     6.102936     1.580543     5.428977
H     6.287425     2.500651     5.138797
H     1.358088     1.719927    -5.823364
O     1.167600     1.122987    -5.068957
H     1.531247     0.260726    -5.341031
H    -2.446020     2.932024     10.496789
O    -2.231919     2.025908     10.220024
H    -2.832561     1.827580     9.489275
H     7.655126    -0.497671     3.060877
O     6.903772     0.074617     3.235112
H     6.214836    -0.528311     3.614355
H    -5.627088    -8.076942    -0.692648
O    -4.889762    -8.144851    -0.049006
H    -4.894261    -7.328439     0.474668
H    -5.174028    -0.135501    -4.698807
O    -5.789984    -0.848291    -4.938368
H    -6.629930    -0.408372    -5.132683
H     1.884938    -0.197702    -7.519685
O     1.680198     0.274831    -8.362425
H     2.255480    -0.128768    -9.017741
H     4.864493    -1.384395    -9.319093
O     3.938047    -1.157103    -9.598171
H     3.915126    -1.273850    -10.547288
H     7.600242    -2.572439     4.174676
O     7.742065    -2.607311     3.214584
H     7.250821    -3.399604     2.943510
H     6.756635    -5.896193     2.659446
O     6.818777    -5.223090     3.363276
H     7.697600    -5.305992     3.775739
H    -1.812135     8.927826     3.514752
O    -1.562201     9.231939     4.412708
H    -2.409887     9.361978     4.871009
H    -7.391989     1.546890    -5.225354
O    -7.964423     0.801080    -4.979902
H    -8.866754     1.198542    -4.900390
H     6.920367    -1.070998    -8.425041
O     6.339340    -1.793138    -8.687729
H     6.114807    -2.244350    -7.855608
H    -1.693450     6.234483    -7.008626
O    -2.088482     5.407850    -6.735074
H    -1.837195     5.276423    -5.772254
H     0.040283     3.286232     9.029088
O     0.239717     2.366241     9.282090
H    -0.558437     2.101941     9.789776
H     6.770890    -2.774872    -2.727184
O     6.243802    -3.520657    -2.384117
H     6.712474    -4.330157    -2.634589
H    -4.068921    -3.087497    -4.933472
O    -4.225700    -2.973942    -5.897840
H    -4.775320    -2.182313    -5.951344
H     2.014738     2.164434     8.465635
O     2.674497     2.276531     7.771286
H     3.107676     1.412308     7.657340
H    -6.884114    -5.225958    -1.379095
O    -7.799609    -5.497734    -1.622848
H    -7.936816    -5.094011    -2.504597
H    -3.804358     5.229466     5.716528
O    -3.774897     5.998988     5.126828
H    -2.841370     6.294983     5.218488
H    -7.873748     0.062357    -1.940427
O    -7.387260     0.787589    -2.355138
H    -7.618418     0.776590    -3.307571
H     5.855802     0.129888     0.395414
O     5.634453     0.850104     1.018077
H     6.147449     0.655722     1.828933
H    -6.184636     3.278103     7.419401
O    -6.054199     2.760458     8.247886
H    -6.650906     1.996267     8.160073
H     2.307462    -8.079953    -0.858276
O     2.984486    -8.065871    -1.554556
H     2.759304    -8.778921    -2.168857
H    -2.737971    -3.971951    -6.191734
O    -1.981931    -4.536391    -5.963195
H    -1.704067    -4.245530    -5.066259
H    -5.618501     3.731624     5.332530
O    -6.266771     4.127081     5.951419
H    -6.104957     5.071404     5.938333
H    -0.996535    -7.124900    -3.166019
O    -0.523049    -6.454949    -2.638919
H     0.382390    -6.382836    -3.023450
H     4.473900     2.010373     5.119138
O     3.531037     2.246338     5.002849
H     3.148685     2.264810     5.885244
H     4.135124     4.647885     6.295813
O     4.214041     5.377998     5.677580
H     3.643846     5.137806     4.908258
H     2.785356     3.607327     3.919123
O     2.606727     4.547480     3.755943
H     2.482894     4.647497     2.790005
H     9.406688     0.219983    -1.097960
O     8.602541     0.380681    -0.600604
H     8.429420    -0.439748    -0.109328
H    -2.063377     5.292740     10.665454
O    -2.782190     4.661414     10.898651
H    -3.000088     4.838749     11.813891
H     7.997220    -3.005616     0.301067
O     8.417413    -2.158485     0.556245
H     8.354801    -2.154609     1.518636
H     5.391640     3.660463     3.514346
O     6.047693     3.923520     4.182025
H     5.636236     4.642713     4.683213
H    -4.174084     4.990375     9.805461
O    -4.809219     5.141921     9.085532
H    -5.419806     4.392181     9.082910
H    -6.997198    -3.499998    -3.466430
O    -7.617802    -4.112294    -3.914191
H    -7.097871    -4.552629    -4.618194
H     0.064562     6.106677     10.779578
O    -0.801787     6.435787     10.535580
H    -0.690275     6.867576     9.669302
H     2.590784     1.494166    -4.109886
O     3.469454     1.848009    -3.873443
H     3.792534     1.333015    -3.104202
H    -6.930389    -0.254555     7.244743
O    -7.440303     0.522796     7.525637
H    -8.067108     0.703440     6.824025
H    -2.708742    -9.889462    -0.830664
O    -2.647558    -8.947653    -0.990223
H    -3.553474    -8.582857    -0.745790
H    -10.072747     3.049826    -4.862153
O    -10.187188     2.131774    -4.582316
H    -10.400084     2.214091    -3.631777
H    -2.221111    -3.179606     4.418008
O    -3.076700    -3.632085     4.626449
H    -3.123262    -4.288338     3.908798
H    -0.137382    -7.996498     2.482731
O     0.691024    -7.782779     2.925594
H     1.406416    -8.079616     2.335854
H     6.750023    -2.378841     6.371421
O     7.199823    -3.086026     5.904365
H     6.574495    -3.824331     5.866110
H    -5.219297    -2.044085     6.964951
O    -5.892253    -1.542681     6.486001
H    -5.885009    -1.916248     5.573493
H     0.825579     3.030771    -7.111809
O     1.743797     2.702025    -7.171343
H     1.729368     1.955052    -7.797798
H    -3.936483     8.730212     6.696534
O    -3.936200     8.729217     5.739170
H    -4.061026     7.801808     5.470675
H    -2.071999     10.301757    -2.717851
O    -2.975024     10.481914    -3.016383
H    -2.907043     11.116417    -3.729165
H     9.449584    -4.059736     4.011265
O     9.170748    -4.737773     4.634362
H     8.746419    -4.265113     5.361189
H    -0.723376    -6.003847    -5.842722
O    -0.017507    -6.569292    -5.512400
H     0.816227    -6.105754    -5.732284
H     1.827571     8.267056     0.669756
O     1.521119     8.589418    -0.206406
H     2.333942     8.629434    -0.739532
H     3.489118     2.932491    -6.668087
O     4.318658     2.643657    -6.261671
H     4.076677     2.368574    -5.352333
H     3.731834     7.122514    -1.231897
O     3.935550     8.058848    -1.444770
H     4.301683     8.004473    -2.339464
H     4.387923    -0.001541    -7.923268
O     4.767794     0.144786    -7.055058
H     4.584564     1.076044    -6.809960
H     6.041904     1.934761    -0.490630
O     6.604993     2.129601    -1.253539
H     7.430970     1.651271    -1.062499
H     6.713523    -8.428153    -1.634581
O     7.347103    -8.214959    -2.372247
H     7.714253    -9.047977    -2.663152
H    -5.289211    -5.804249    -5.395634
O    -5.908461    -5.133330    -5.708575
H    -5.359540    -4.363635    -5.945617
H     0.707593     7.156202     7.608870
O    -0.192698     7.180490     7.971504
H    -0.751062     7.195048     7.155850
H    -8.887229    -2.858133    -4.076131
O    -9.409100    -2.050888    -3.906865
H    -9.125782    -1.384818    -4.536954
H    -2.387786    -6.002224    -2.139816
O    -3.266692    -5.716836    -2.406715
H    -3.456000    -6.091550    -3.291831
H    -2.973991    -5.911253    -5.405074
O    -3.571178    -6.522896    -4.931978
H    -3.087070    -7.342217    -4.767132
H    -1.402353     3.720443    -6.972645
O    -0.859401     2.965590    -6.704594
H    -1.096917     2.180447    -7.254252
H    -0.213310     0.414644    -8.213016
O    -1.108816     0.648003    -7.926486
H    -1.280630     0.123153    -7.128602
H    -10.422443     4.024399    -2.695728
O    -10.486799     3.244962    -2.128340
H    -9.655770     3.219261    -1.622090
H     4.593422     4.077024     1.712761
O     4.390330     3.155335     1.993240
H     5.105134     2.581543     1.705157
H     6.486709     1.404302    -4.236455
O     6.187632     0.778807    -3.541906
H     6.219583     1.273947    -2.698014
H     9.651602    -2.216973    -0.960197
O     9.925004    -2.000672    -1.860444
H     9.122435    -1.663598    -2.301239
H     9.983556    -3.308861    -3.131509
O     9.715338    -3.961012    -3.805818
H     9.318551    -3.453674    -4.524610
H    -7.669321    -8.599134    -1.648539
O    -6.933094    -8.003573    -1.780528
H    -7.312286    -7.091113    -1.767867
H     4.153235     6.082578    -3.825447
O     4.813224     6.785029    -3.741707
H     5.650794     6.332611    -3.607606
H     0.115265    -8.175875    -5.222605
O     0.142381    -9.158839    -5.091819
H     0.289962    -9.521387    -5.965380
H    -2.307272    -8.686132    -2.715904
O    -2.075807    -8.421051    -3.625810
H    -1.429557    -9.038505    -3.986797
H     2.211683    -10.819413    -3.511753
O     2.164351    -9.864937    -3.486745
H     1.376596    -9.595185    -4.010156
H     6.831607     3.338204    -4.590552
O     6.889032     2.660563    -5.291999
H     6.093668     2.792572    -5.830250
H    -3.522008    -3.574958     7.819126
O    -3.612457    -2.891379     7.154237
H    -3.422149    -3.324570     6.287286
H    -0.634811    -3.367298    -6.724044
O    -0.005853    -2.634712    -6.732847
H    -0.488136    -1.860546    -6.388907
H     0.675452     0.522492     8.954248
O     0.622344    -0.266768     8.402392
H    -0.338562    -0.405190     8.284610
H    -5.845693     7.350226    -4.223576
O    -6.348923     6.730996    -4.783867
H    -6.632503     5.998645    -4.192664
H    -4.290671     9.087771    -3.238258
O    -4.824314     8.290365    -3.131283
H    -4.412717     7.810807    -2.394172
H    -9.720900     5.772047    -4.607976
O    -10.252010     4.966089    -4.443614
H    -11.134142     5.165388    -4.759156
H     2.791209     6.504845     6.139839
O     1.831416     6.599017     6.241737
H     1.488592     5.685568     6.138389
H     4.802979     8.546484     0.080017
O     5.123649     8.547004     0.999851
H     5.532649     7.683356     1.128384
H     4.161699    -7.424204    -4.361595
O     3.402745    -7.709879    -4.902024
H     3.124911    -8.551728    -4.526031
H     0.388632     8.645538     4.243794
O     1.067622     8.003049     4.013282
H     1.297030     7.509753     4.826741
H     5.233652     4.194692    -3.167994
O     6.195350     4.166576    -3.118219
H     6.407728     3.584898    -2.371604
H    -2.576390    -1.463794     7.575301
O    -2.097090    -0.662458     7.868818
H    -2.769646    -0.089676     8.255731
H    -9.040212     7.912664    -4.107857
O    -8.978024     7.329375    -4.865722
H    -8.021017     7.167248    -5.003783
H     3.568506    -8.985609     1.069387
O     2.892268    -8.355959     1.324750
H     3.366198    -7.549407     1.601277
H     3.589915     8.167056     1.828910
O     2.801592     7.601032     1.943482
H     2.356695     7.835613     2.770662
N    -0.142959    -3.374448     6.706946
H     0.105964    -2.596464     7.217830
H     0.719491    -3.704882     6.380311
