18
Coordinates from ORCA-job grain_mol_opt.QMRegion
  H   4.16932837259125      5.57349465192332      0.29801656477047
  O   4.59882780358652      5.71905895374476      1.16106245375478
  H   3.93945046951930      6.25485976141971      1.64840615350645
  H   1.86165795122218      8.34287542199235      0.64324523767465
  O   1.51565617570920      8.60240048268473     -0.23774336379321
  H   2.29252150566609      8.59746568065262     -0.82121910421808
  H   3.71843351155011      7.10070677192764     -1.32300717618741
  O   3.95398868183938      8.01736221634667     -1.58555788001159
  H   4.26520195554489      7.87082561436032     -2.50127617003311
  H   5.44195185083107      8.15377048264809     -0.43964772551682
  O   6.06556254930235      8.06147209655050      0.30718794982279
  H   5.82677638881953      7.18406162588226      0.65760879568136
  H   3.49040067633922      8.45462465921874      2.19676427999705
  O   2.80964134355765      7.75429622668524      2.05642374162475
  H   2.21463979985827      7.80918766938351      2.82905110465048
  O   4.80615824660868      9.58452814723906      2.14998903321078
  H   4.53522956251936     10.38185474194594      1.68568649284627
  H   5.37139480213243      9.09314677961897      1.49579399509516
