30

H    -0.928158     0.602075     5.996941
O    -0.644713     0.082514     5.226608
H     0.055515    -0.536502     5.514462
H     1.945184    -3.718434     4.139063
O     1.751690    -4.169212     4.989032
H     2.330303    -3.708879     5.622979
H     4.166555    -2.477481     5.831379
O     3.866807    -3.142361     6.479506
H     4.391179    -3.936994     6.250392
H     4.993670    -2.214732     3.646432
O     5.003028    -1.524437     4.346708
H     4.216357    -0.950197     4.159118
H     2.028496    -0.832743     5.073326
O     1.505669    -1.354814     5.718906
H     1.662171    -0.946599     6.578932
H     3.969850    -0.248593     7.622294
O     3.977934     0.479126     6.962718
H     4.891778     0.659191     6.697333
H     1.957002     2.425709     8.556453
O     2.698834     2.660137     7.983481
H     3.137207     1.816127     7.733636
H     6.596482    -2.276124     5.976649
O     7.181347    -3.036026     5.885235
H     6.577367    -3.790841     5.862315
H     0.605199     0.432592     8.781162
O     0.626877    -0.419222     8.326984
H    -0.315052    -0.643159     8.190392
N     3.428350    -1.531013     8.708842
H     2.470813    -1.405385     8.786661
H     3.540865    -2.268421     8.079401
