603

H     0.212054     3.034224    -0.678448
O     0.734354     2.365574    -1.171631
H     1.673430     2.494036    -0.899812
H    -0.060822    -1.299980     3.155338
O     0.331586    -0.599945     2.610836
H    -0.147222     0.213212     2.843400
H    -2.387205     2.415122    -0.531941
O    -2.174012     1.945450     0.291866
H    -2.193058     0.997218     0.068241
H    -4.648495     0.555372     2.191616
O    -4.965836    -0.377822     2.205738
H    -4.462328    -0.856318     1.539001
H     0.076252    -0.303997     0.955783
O    -0.121494    -0.068207     0.028702
H     0.216806     0.828525    -0.093105
H    -0.139677    -3.569737     3.785370
O    -0.416716    -2.738449     4.204686
H     0.229511    -2.568391     4.906412
H    -4.872590     2.538164     1.337442
O    -4.231922     2.128847     1.950995
H    -3.390222     2.110446     1.437028
H    -3.238654     3.901781    -2.207564
O    -2.500238     3.305506    -1.977096
H    -2.144124     3.015739    -2.837135
H    -0.115136    -3.800454     0.510996
O     0.225920    -2.982526     0.927214
H    -0.560997    -2.495689     1.239836
H    -2.363930    -1.531254     2.478104
O    -2.175708    -1.997948     1.637164
H    -2.435700    -1.411739     0.907539
H     2.081377    -1.441908    -1.119161
O     2.314293    -1.693337    -0.201600
H     1.525507    -2.120787     0.183532
H    -1.377644     1.831403     1.915512
O    -1.465284     1.434557     2.792225
H    -1.452915     2.147419     3.457117
H     0.215649    -2.701296    -1.564335
O    -0.539383    -2.088926    -1.618726
H    -0.358957    -1.362426    -0.985407
H    -3.428233    -2.920458    -0.380123
O    -2.711386    -3.413047    -0.801095
H    -2.001554    -2.782742    -1.021116
H     2.787500     0.134025     2.931897
O     2.890005    -0.044820     3.894121
H     2.976474     0.847809     4.296824
H    -3.516125     6.385578    -0.541106
O    -3.277229     7.047439    -1.242000
H    -3.135683     7.893042    -0.772745
H     3.914729     0.585347     1.182314
O     2.964142     0.405425     1.300483
H     2.724846    -0.347598     0.722347
H    -5.772483     0.848009    -1.593999
O    -4.861681     1.175129    -1.469499
H    -4.971775     2.004088    -0.958582
H    -1.196183     5.403503     2.211550
O    -1.819353     4.655704     2.096200
H    -1.899049     4.238008     2.959276
H     3.505474     2.763203     0.421075
O     3.257970     2.721989    -0.517733
H     3.588271     1.878639    -0.869062
H     1.496186    -4.696260    -2.245018
O     1.562166    -3.918364    -1.672878
H     2.356448    -3.458140    -2.025793
H    -0.915070    -0.083453    -2.544125
O    -0.280837     0.568428    -2.869416
H    -0.019534     1.151173    -2.133307
H     1.707154    -4.683129    -0.174121
O     1.815165    -5.319459     0.568937
H     1.350670    -6.130666     0.274579
H    -1.222120    -3.264198    -2.871904
O    -1.049292    -3.948201    -3.532164
H    -0.923117    -4.794825    -3.062527
H    -2.759490     3.321099     4.708344
O    -1.778283     3.317936     4.671425
H    -1.485983     2.915043     5.509651
H     0.910178     4.993848     4.091034
O    -0.032548     5.235735     4.071058
H    -0.517472     4.447667     4.370178
H    -1.722612    -4.646307    -0.361251
O    -0.957245    -5.187128    -0.076917
H    -1.304430    -5.873251     0.502482
H    -3.907996     5.836027    -2.595268
O    -4.259200     5.001515    -2.923377
H    -4.106465     4.965719    -3.891919
H    -2.419088    -3.682312     1.946375
O    -2.437250    -4.586343     2.322588
H    -1.497504    -4.824616     2.462491
H    -4.690814    -2.976059    -2.885874
O    -3.839091    -3.209686    -3.293144
H    -3.508001    -4.003116    -2.827610
H     0.355493     1.383527     4.612710
O     0.869413     2.138434     4.279044
H     0.906705     2.801794     4.984542
H    -4.649634    -5.165377    -1.555836
O    -5.350360    -4.810876    -0.981457
H    -5.136198    -5.164496    -0.097201
H     2.327647    -6.483356    -4.033683
O     1.992275    -6.153358    -3.179975
H     2.427083    -6.727013    -2.516825
H     0.469656    -3.379411    -3.999919
O     1.271870    -3.013021    -4.424592
H     0.951119    -2.642469    -5.273069
H     1.976403    -1.747728     2.983366
O     2.132625    -2.678457     2.766535
H     1.445386    -2.893340     2.101198
H    -3.010300    -1.806678    -3.200473
O    -2.587489    -0.920296    -3.137184
H    -3.243353    -0.274744    -3.456286
H    -3.176529     4.981611     1.082729
O    -3.957553     5.356445     0.628841
H    -4.371919     5.914595     1.335701
H     0.890591     2.257491     2.591509
O     0.992345     2.255880     1.619762
H     1.716433     1.629808     1.454026
H     0.201620     5.659707    -0.761659
O     0.724278     6.320812    -1.270663
H     0.866110     7.121437    -0.716503
H     0.362437     7.038701     2.588677
O     0.000413     6.661559     1.771204
H     0.662055     5.989077     1.507556
H    -2.464736     0.223486     3.347768
O    -2.684826    -0.590797     3.852742
H    -1.924415    -0.628504     4.474770
H    -0.873057     0.567044     6.030230
O    -0.601856     0.045762     5.255394
H     0.109315    -0.559740     5.541711
H     0.720700    -4.989327     1.986853
O     0.180023    -5.097399     2.792547
H     0.324130    -6.017927     3.065298
H    -2.112046    -8.082852     0.462258
O    -1.787962    -7.594195     1.246332
H    -2.573306    -7.282223     1.703547
H    -0.369229     6.865714    -2.328825
O    -1.116032     7.286195    -2.826431
H    -1.905410     7.160303    -2.261684
H    -1.100864     4.314146     0.574218
O    -0.728493     4.375601    -0.322014
H    -1.435716     4.132596    -0.953697
H    -4.392893     2.756638     3.514180
O    -4.387804     2.928660     4.478029
H    -4.471737     2.046854     4.889470
H     2.039059    -3.575870     4.247419
O     1.976901    -4.047388     5.101092
H     2.483921    -3.510013     5.730956
H     4.697768    -3.193068     0.837806
O     4.536031    -3.117559    -0.128463
H     3.676917    -2.640511    -0.210987
H    -2.715051    -0.744161    -1.344081
O    -3.040366    -0.472605    -0.469358
H    -3.841538     0.052584    -0.675267
H    -1.614271    -0.760463    -4.625319
O    -1.108243    -0.545423    -5.430094
H    -0.397732     0.050868    -5.146361
H     1.799118    -1.715314    -3.375196
O     1.893009    -0.967749    -2.753109
H     1.115349    -0.390804    -2.883295
H     3.675536    -3.118537     2.550750
O     4.634494    -3.347599     2.476763
H     4.688969    -4.307778     2.604011
H     3.438108    -6.116912     3.126587
O     3.792626    -5.916495     2.225764
H     3.054199    -5.571705     1.683580
H    -3.339323     1.613148    -4.170982
O    -4.184057     1.143045    -3.978641
H    -4.400279     1.289490    -3.021745
H    -5.070499     4.154843     0.073195
O    -5.509023     3.288776    -0.029107
H    -6.440174     3.407765    -0.308710
H     6.741227    -1.183864    -1.369507
O     5.970262    -1.032923    -0.816181
H     5.550975    -1.900364    -0.617347
H     4.598384    -3.170679    -2.471988
O     3.730005    -2.998951    -2.886715
H     3.731583    -3.618626    -3.642192
H     4.453259    -2.286156     5.620406
O     4.111850    -2.749215     6.415349
H     4.444323    -3.655204     6.333839
H    -0.735827     6.346906     5.070350
O    -1.335029     6.925683     5.599479
H    -1.348408     7.803173     5.159076
H     4.706143    -0.137221    -1.471077
O     3.938529     0.405681    -1.732327
H     3.245313    -0.194746    -2.061437
H    -0.736286     4.523987    -4.037491
O    -1.518960     5.067310    -4.244697
H    -1.366535     5.934363    -3.823615
H     0.667004     3.204507    -2.659583
O     0.673730     3.580687    -3.568245
H     0.719062     2.816685    -4.153242
H    -5.373779    -5.184807     1.810765
O    -4.678029    -5.780273     1.454784
H    -3.836856    -5.364702     1.723822
H     7.883783    -1.695859    -4.042173
O     7.627609    -1.381333    -3.142407
H     7.141038    -0.537462    -3.299231
H     3.699517    -5.076091    -5.288434
O     4.463035    -4.702667    -4.809001
H     4.847991    -5.413533    -4.263321
H    -3.767689     0.028304     4.943437
O    -4.367311     0.493822     5.575304
H    -5.026905    -0.163325     5.870418
H     3.470124    -5.941653    -0.516628
O     4.342512    -5.695191    -0.835973
H     4.419428    -4.732799    -0.693639
H     5.003495    -0.339690    -4.165527
O     4.466933    -1.050915    -4.553772
H     4.141821    -1.633681    -3.834945
H    -1.168089     1.572466    -3.933620
O    -1.818427     2.193759    -4.318304
H    -1.462476     2.523851    -5.165921
H     4.887364    -6.324076    -2.314149
O     5.218710    -6.649742    -3.180074
H     6.036557    -7.131301    -2.994300
H     8.742314    -5.097138    -2.924909
O     8.051719    -5.513675    -2.364860
H     8.085453    -6.471162    -2.466023
H     2.350746     4.723104     0.446392
O     1.775494     4.705560     1.220735
H     1.416061     3.785336     1.298402
H    -4.400452    -2.623896     4.244271
O    -5.294561    -2.284594     4.042307
H    -5.158318    -1.503567     3.466587
H    -5.836131    -3.187022     1.333196
O    -6.298050    -3.743267     2.002670
H    -6.108030    -3.307082     2.852590
H     1.714414     3.392046     6.878458
O     1.164613     3.948676     6.301983
H     0.337532     4.138781     6.817042
H     5.015463    -2.166036     3.613024
O     5.037897    -1.445916     4.275382
H     4.226058    -0.890201     4.119431
H     2.404889    -5.570198     4.842878
O     2.784059    -6.454300     4.582926
H     2.038382    -7.035638     4.410941
H     2.252671    -4.520903    -6.786819
O     2.084935    -5.008149    -5.970237
H     1.821575    -4.316166    -5.315158
H     6.446162    -4.104536    -0.507225
O     7.200124    -4.506986    -0.044681
H     7.705897    -4.931155    -0.765732
H    -1.770314     4.516869     7.516557
O    -0.852451     4.640164     7.860290
H    -0.744357     5.601610     7.998696
H    -5.114978     5.694974    -5.590797
O    -4.507410     4.931392    -5.611001
H    -3.751408     5.144651    -6.179022
H     3.275390    -2.534608    -8.437178
O     3.188687    -3.065983    -7.634911
H     4.066124    -3.042149    -7.207769
H    -0.649372     8.828971    -2.283748
O    -0.524681     9.657938    -1.765938
H     0.238700     9.484067    -1.190820
H     2.083500    -0.904977     5.212623
O     1.512798    -1.430989     5.801467
H     1.605094    -1.083917     6.698138
H     5.204501    -2.029996    -5.697029
O     5.549533    -2.796987    -6.218641
H     5.275936    -3.586274    -5.699881
H     5.709291    -5.210163     4.684763
O     5.188473    -5.122968     5.512092
H     4.466909    -5.755288     5.429321
H    -3.953864     1.158990     7.015842
O    -3.759426     1.634427     7.858858
H    -4.634329     2.021211     8.121728
H    -1.837598     9.619440    -0.750185
O    -2.696656     9.493888    -0.273123
H    -3.308801     10.121888    -0.660323
H    -5.941213     4.693959    -2.930763
O    -6.850364     4.575312    -3.273606
H    -6.761584     3.871919    -3.949865
H     0.097853    -7.062164    -1.133014
O     0.563239    -7.497285    -0.385573
H    -0.114994    -7.691335     0.264535
H    -7.629416     3.797697    -1.962127
O    -7.889415     3.211754    -1.220839
H    -7.747794     2.302537    -1.559607
H     3.986432    -0.870693     6.988039
O     4.001001     0.093788     6.974822
H     4.816077     0.371049     6.540043
H     2.269028     5.797438    -1.186784
O     3.204514     5.504122    -1.072840
H     3.379758     4.963537    -1.866281
H     6.557520    -5.929722     0.670108
O     6.189486    -6.665135     1.205365
H     5.285418    -6.387425     1.433364
H    -3.862375     4.740651     7.781756
O    -3.320557     4.277037     7.102212
H    -3.485720     3.331486     7.236041
H     5.767371    -7.945770     0.139575
O     5.478213    -8.633297    -0.496854
H     4.648331    -8.307987    -0.889781
H    -0.681081     2.047297     7.681744
O    -1.291150     1.941789     6.931251
H    -2.158622     1.756228     7.317140
H    -6.372002    -0.112353     1.076335
O    -6.693648    -0.196864     0.164004
H    -7.612569    -0.466918     0.183935
H    -5.365688    -3.057347    -0.572804
O    -5.111494    -2.354349     0.051272
H    -5.681946    -1.581610    -0.135702
H     4.331477     5.578840     0.309039
O     4.665852     5.680384     1.214108
H     3.972241     6.192359     1.665472
H    -9.039764    -1.737791    -2.232899
O    -8.490097    -1.535848    -1.448257
H    -8.616877    -2.271558    -0.809347
H    -5.522654     3.472484    -5.519217
O    -6.039625     2.762653    -5.102680
H    -5.372790     2.177136    -4.689486
H     3.179340    -0.892906    -5.656831
O     2.322548    -1.012767    -6.121018
H     2.406677    -1.862431    -6.593589
H     8.112506    -1.357781    -6.038707
O     8.120915    -2.221079    -5.580966
H     7.264199    -2.621044    -5.829824
H     7.619545     0.982827    -6.321467
O     7.429415     0.134032    -6.733093
H     6.447987     0.084547    -6.767798
H    -7.852286    -3.682600     0.950788
O    -8.531521    -3.575999     0.267168
H    -8.434994    -4.336427    -0.333485
H    -2.392308     8.744237     1.289657
O    -2.237496     8.157469     2.043423
H    -1.469914     7.602789     1.817365
H    -4.427291     6.446321     3.499786
O    -4.597009     6.871028     2.642027
H    -3.834317     7.457362     2.502496
H     3.405896     3.444469    -3.583829
O     3.253242     4.413916    -3.490227
H     2.288289     4.478804    -3.597506
H    -6.113754    -1.601498    -3.426819
O    -6.195340    -2.179760    -2.642016
H    -6.978436    -1.871782    -2.132355
H     6.484360     1.052818     4.731507
O     6.092081     1.594948     5.433214
H     6.282976     2.511637     5.139539
H     1.361651     1.718795    -5.824007
O     1.168595     1.124197    -5.068348
H     1.530458     0.260359    -5.338026
H    -2.451978     3.002444     10.484956
O    -2.230088     2.096699     10.209361
H    -2.836056     1.885262     9.487089
H     7.641396    -0.493988     3.073989
O     6.891848     0.081813     3.244862
H     6.200186    -0.519540     3.624258
H    -5.656314    -8.047449    -0.678807
O    -4.920147    -8.115718    -0.033817
H    -4.922743    -7.297952     0.487435
H    -5.176890    -0.116596    -4.703219
O    -5.794632    -0.828348    -4.941194
H    -6.633023    -0.386572    -5.138103
H     1.885659    -0.204124    -7.515126
O     1.683071     0.267155    -8.359102
H     2.258044    -0.139432    -9.012872
H     4.864076    -1.402869    -9.307993
O     3.938580    -1.173652    -9.588769
H     3.916604    -1.292737    -10.537627
H     7.578353    -2.567693     4.193034
O     7.722956    -2.603701     3.233202
H     7.229734    -3.395223     2.962865
H     6.730620    -5.892336     2.682921
O     6.794187    -5.216048     3.382880
H     7.670615    -5.301693     3.799474
H    -1.801439     8.959362     3.490338
O    -1.546726     9.264555     4.386737
H    -2.392982     9.398080     4.847717
H    -7.389618     1.570610    -5.236600
O    -7.964243     0.827034    -4.989510
H    -8.865708     1.227145    -4.912461
H     6.919824    -1.093119    -8.412135
O     6.336831    -1.814022    -8.673850
H     6.110303    -2.262954    -7.841033
H    -1.676231     6.238777    -7.023750
O    -2.073815     5.413905    -6.748580
H    -1.824104     5.284088    -5.785278
H    -0.005567     3.371095     9.015591
O     0.161428     2.439592     9.260923
H    -0.647335     2.198293     9.772731
H     6.758670    -2.783364    -2.710615
O     6.228461    -3.526765    -2.367472
H     6.695972    -4.338236    -2.613858
H    -4.079289    -3.071839    -4.929637
O    -4.234726    -2.960131    -5.894349
H    -4.782126    -2.167170    -5.950533
H     1.953835     1.996960     8.495780
O     2.719435     2.243063     7.952096
H     3.176280     1.398517     7.769834
H    -6.904660    -5.194440    -1.373973
O    -7.820729    -5.463895    -1.617666
H    -7.955772    -5.062297    -2.500812
H    -3.813865     5.271456     5.696784
O    -3.778780     6.038771     5.103505
H    -2.844848     6.331585     5.198319
H    -7.879613     0.095111    -1.949274
O    -7.390058     0.817851    -2.364632
H    -7.620208     0.805788    -3.317415
H     5.846902     0.131436     0.404742
O     5.626644     0.853686     1.025664
H     6.138543     0.658515     1.837555
H    -6.191470     3.328946     7.407211
O    -6.062574     2.810908     8.235793
H    -6.663798     2.050347     8.149527
H     2.280471    -8.072070    -0.833530
O     2.956218    -8.060551    -1.531019
H     2.729913    -8.775332    -2.142823
H    -2.749218    -3.962837    -6.184291
O    -1.995240    -4.528974    -5.953314
H    -1.717427    -4.236710    -5.056860
H    -5.623459     3.775703     5.319403
O    -6.275205     4.172586     5.933365
H    -6.106877     5.115862     5.924311
H    -1.019722    -7.113245    -3.149193
O    -0.545822    -6.442978    -2.622853
H     0.360941    -6.374724    -3.005570
H     4.492791     1.982088     5.120789
O     3.553266     2.237186     4.986854
H     3.130281     2.105251     5.841260
H     4.206556     4.748435     6.108100
O     4.239820     5.495453     5.498799
H     3.641077     5.190990     4.762661
H     2.779038     3.623857     3.915743
O     2.608932     4.564963     3.748917
H     2.485352     4.662871     2.782431
H     9.400327     0.208084    -1.084675
O     8.595632     0.372221    -0.589304
H     8.420090    -0.446414    -0.095660
H    -1.994114     5.289410     10.678134
O    -2.788218     4.732688     10.879487
H    -2.990040     4.894252     11.801246
H     7.980577    -3.009941     0.320341
O     8.402333    -2.163042     0.573954
H     8.338542    -2.157517     1.536387
H     5.387267     3.671391     3.512426
O     6.042142     3.938086     4.180327
H     5.635777     4.662351     4.674981
H    -4.169850     5.052659     9.788451
O    -4.810609     5.194558     9.070344
H    -5.418666     4.443055     9.076649
H    -7.010440    -3.473218    -3.465256
O    -7.632103    -4.085194    -3.911837
H    -7.112623    -4.528516    -4.614374
H     0.156729     5.725708     10.438009
O    -0.620638     6.265457     10.638121
H    -0.719672     6.809726     9.840514
H     2.591747     1.493726    -4.108562
O     3.470626     1.846502    -3.871283
H     3.791996     1.331691    -3.101151
H    -6.951840    -0.200166     7.235876
O    -7.459977     0.578540     7.516165
H    -8.083607     0.762180     6.812556
H    -2.741825    -9.868028    -0.809035
O    -2.678331    -8.926646    -0.970313
H    -3.583619    -8.559284    -0.728430
H    -10.066724     3.081537    -4.880554
O    -10.183684     2.164471    -4.598496
H    -10.397833     2.249808    -3.648494
H    -2.053305    -3.012195     4.625055
O    -2.927924    -3.452236     4.696751
H    -2.923685    -4.070906     3.941265
H    -0.170380    -7.974750     2.499699
O     0.657069    -7.764041     2.945505
H     1.373964    -8.061484     2.357810
H     6.723446    -2.369113     6.388343
O     7.172077    -3.078533     5.923556
H     6.542244    -3.813661     5.887113
H    -5.252722    -1.985615     6.959657
O    -5.929830    -1.488484     6.475894
H    -5.915464    -1.866899     5.567453
H     0.834268     3.028122    -7.116275
O     1.751628     2.696692    -7.173491
H     1.736230     1.948390    -7.798401
H    -3.924115     8.775532     6.671787
O    -3.922249     8.770830     5.714313
H    -4.054403     7.843199     5.449542
H    -2.048758     10.317378    -2.743232
O    -2.951147     10.498841    -3.042725
H    -2.881322     11.131753    -3.756748
H     9.424145    -4.058307     4.036107
O     9.144728    -4.735365     4.659958
H     8.717168    -4.261888     5.384488
H    -0.740390    -5.999326    -5.828144
O    -0.036713    -6.565821    -5.495035
H     0.798723    -6.105359    -5.715025
H     1.840875     8.280003     0.654063
O     1.536531     8.601170    -0.222695
H     2.349900     8.637566    -0.755448
H     3.496977     2.923813    -6.668857
O     4.325255     2.634173    -6.260482
H     4.081416     2.361359    -5.350995
H     3.744329     7.125414    -1.242164
O     3.950630     8.060980    -1.455897
H     4.317736     8.004129    -2.350123
H     4.389621    -0.015657    -7.916115
O     4.768388     0.131828    -7.047615
H     4.587638     1.064183    -6.805210
H     6.039875     1.932466    -0.485468
O     6.604117     2.125378    -1.248001
H     7.428539     1.644670    -1.055676
H     6.684625    -8.433351    -1.604788
O     7.319344    -8.223904    -2.342774
H     7.685275    -9.058679    -2.630126
H    -5.306240    -5.786682    -5.386906
O    -5.923468    -5.114627    -5.701426
H    -5.372240    -4.347171    -5.940322
H     0.491182     7.443407     7.703239
O    -0.440833     7.396690     7.968805
H    -0.890569     7.316503     7.089993
H    -8.898214    -2.827768    -4.078770
O    -9.417671    -2.018593    -3.911425
H    -9.132443    -1.354868    -4.543138
H    -2.409155    -5.984549    -2.127762
O    -3.287398    -5.697605    -2.395341
H    -3.476680    -6.073583    -3.280091
H    -2.991508    -5.899819    -5.392958
O    -3.590863    -6.508450    -4.918650
H    -3.109314    -7.328920    -4.751868
H    -1.391980     3.724027    -6.981487
O    -0.851637     2.968357    -6.710510
H    -1.090134     2.182590    -7.258941
H    -0.210098     0.412344    -8.212608
O    -1.105262     0.648914    -7.927563
H    -1.279585     0.126092    -7.128935
H    -10.416683     4.062188    -2.716621
O    -10.483471     3.284032    -2.147734
H    -9.653439     3.257817    -1.639988
H     4.595112     4.083891     1.709661
O     4.389941     3.164829     1.996730
H     5.100600     2.586200     1.707453
H     6.487534     1.393377    -4.229906
O     6.185271     0.770613    -3.534336
H     6.218257     1.267196    -2.691414
H     9.638561    -2.229245    -0.940874
O     9.913705    -2.015298    -1.841201
H     9.112552    -1.677417    -2.283793
H     9.970368    -3.326756    -3.109306
O     9.701356    -3.979512    -3.782699
H     9.306815    -3.472701    -4.503055
H    -7.698431    -8.566425    -1.637168
O    -6.960510    -7.972671    -1.767795
H    -7.337654    -7.059426    -1.758380
H     4.166165     6.078844    -3.832731
O     4.827613     6.779820    -3.748096
H     5.664070     6.325369    -3.613845
H     0.091591    -8.172207    -5.201586
O     0.115147    -9.154898    -5.068359
H     0.263635    -9.520069    -5.940677
H    -2.334843    -8.670374    -2.696789
O    -2.102295    -8.407730    -3.607028
H    -1.457016    -9.027304    -3.966272
H     2.178876    -10.817411    -3.481871
O     2.133518    -9.862793    -3.458919
H     1.347246    -9.592271    -3.983988
H     6.838139     3.325672    -4.588125
O     6.894435     2.646205    -5.287784
H     6.100180     2.778985    -5.827458
H    -3.544330    -3.704718     7.736365
O    -3.659676    -2.918029     7.204925
H    -3.409827    -3.158425     6.286744
H    -0.643652    -3.365215    -6.715386
O    -0.012905    -2.634201    -6.724915
H    -0.493637    -1.857991    -6.383589
H     0.655862     0.479413     8.756524
O     0.672632    -0.233890     8.115201
H    -0.248796    -0.525919     8.026771
H    -5.828744     7.372332    -4.246649
O    -6.332735     6.752936    -4.806024
H    -6.619399     6.023041    -4.213347
H    -4.270286     9.108054    -3.263333
O    -4.805888     8.312105    -3.155330
H    -4.396826     7.833390    -2.416358
H    -9.707959     5.803440    -4.631952
O    -10.241336     4.999217    -4.466433
H    -11.122579     5.200228    -4.783402
H     2.830937     6.601003     6.171595
O     1.878548     6.666932     6.373591
H     1.577485     5.746755     6.213062
H     4.816780     8.550875     0.068064
O     5.133549     8.551166     0.989410
H     5.544082     7.688245     1.118205
H     4.138855    -7.429241    -4.337225
O     3.379488    -7.714120    -4.877652
H     3.099462    -8.554508    -4.500030
H     0.401702     8.662684     4.234827
O     1.083404     8.013648     4.026771
H     1.287896     7.524891     4.842725
H     5.240576     4.189070    -3.169551
O     6.202093     4.159461    -3.117806
H     6.412199     3.578036    -2.370331
H    -2.558192    -1.527033     7.584204
O    -2.043476    -0.735838     7.800772
H    -2.664264    -0.105747     8.177134
H    -9.021989     7.943698    -4.136219
O    -8.960430     7.358039    -4.892304
H    -8.003746     7.193356    -5.029138
H     3.535133    -8.975939     1.099206
O     2.859449    -8.343161     1.348146
H     3.335118    -7.537930     1.626379
H     3.601549     8.177022     1.813729
O     2.810699     7.614309     1.933228
H     2.371211     7.851299     2.761458
N     1.956279     5.169476     9.244067
H     2.055198     5.696466     8.438133
H     2.520253     4.399962     9.105120
