603

H     0.204154     3.038133    -0.683927
O     0.728374     2.372121    -1.179068
H     1.666797     2.501846    -0.904891
H    -0.061442    -1.306021     3.139779
O     0.328774    -0.604308     2.595945
H    -0.150133     0.207941     2.831165
H    -2.393844     2.413031    -0.539863
O    -2.180644     1.941453     0.282838
H    -2.197015     0.993870     0.056657
H    -4.652452     0.541734     2.177178
O    -4.967860    -0.392186     2.189205
H    -4.463133    -0.868055     1.521484
H     0.074479    -0.304515     0.942208
O    -0.122298    -0.066872     0.015340
H     0.213360     0.831402    -0.102691
H    -0.135557    -3.577555     3.763945
O    -0.415137    -2.748067     4.185182
H     0.230788    -2.577710     4.887227
H    -4.880097     2.526235     1.328190
O    -4.239333     2.116824     1.941720
H    -3.397002     2.101516     1.428399
H    -3.247960     3.901751    -2.212602
O    -2.509012     3.305638    -1.983476
H    -2.151071     3.019901    -2.843938
H    -0.109129    -3.800372     0.489007
O     0.230224    -2.982359     0.906538
H    -0.557588    -2.498007     1.220633
H    -2.363604    -1.540676     2.460056
O    -2.174139    -2.004884     1.618167
H    -2.434798    -1.417329     0.889866
H     2.082263    -1.433042    -1.134533
O     2.316600    -1.687119    -0.218254
H     1.528546    -2.116115     0.166806
H    -1.383191     1.825401     1.906359
O    -1.473019     1.425901     2.781714
H    -1.459641     2.137028     3.448086
H     0.220061    -2.695529    -1.582892
O    -0.535311    -2.083695    -1.637437
H    -0.357167    -1.358860    -1.001465
H    -3.423360    -2.925317    -0.402275
O    -2.705087    -3.414991    -0.824215
H    -1.996599    -2.782426    -1.041898
H     2.783337     0.134750     2.922185
O     2.884345    -0.049394     3.883186
H     2.974270     0.842881     4.289633
H    -3.531197     6.380938    -0.540144
O    -3.294226     7.044829    -1.239633
H    -3.153846     7.889598    -0.768272
H     3.911269     0.593829     1.173902
O     2.961078     0.410609     1.289605
H     2.724447    -0.341849     0.710185
H    -5.775106     0.841105    -1.608103
O    -4.865058     1.169807    -1.482232
H    -4.977130     1.997359    -0.969395
H    -1.209954     5.397572     2.209822
O    -1.833233     4.649199     2.092111
H    -1.910196     4.229324     2.954138
H     3.498178     2.774303     0.416695
O     3.250325     2.731750    -0.522668
H     3.583318     1.889556    -0.873303
H     1.507275    -4.686481    -2.268685
O     1.570094    -3.908859    -1.695600
H     2.362953    -3.445477    -2.046126
H    -0.914920    -0.077171    -2.557666
O    -0.281349     0.576453    -2.880822
H    -0.022312     1.158402    -2.143037
H     1.715210    -4.677436    -0.197181
O     1.824577    -5.315306     0.544034
H     1.362139    -6.126995     0.247485
H    -1.215508    -3.258726    -2.893489
O    -1.038807    -3.939988    -3.555531
H    -0.912135    -4.788037    -3.088356
H    -2.773018     3.302806     4.702244
O    -1.791766     3.301640     4.667225
H    -1.497668     2.899255     5.502768
H     0.965945     5.035610     4.073221
O     0.019521     5.266037     4.125890
H    -0.450938     4.461861     4.383503
H    -1.714167    -4.647535    -0.386497
O    -0.947587    -5.186995    -0.102969
H    -1.293299    -5.875774     0.474192
H    -3.921160     5.835504    -2.595512
O    -4.270191     5.001092    -2.926359
H    -4.116576     4.968385    -3.894815
H    -2.413818    -3.690661     1.923115
O    -2.430410    -4.595527     2.297314
H    -1.490205    -4.832341     2.436945
H    -4.684206    -2.977270    -2.909025
O    -3.831606    -3.207987    -3.316160
H    -3.499445    -4.002139    -2.852552
H     0.349997     1.376228     4.606875
O     0.854742     2.137491     4.273726
H     0.902695     2.795617     4.981478
H    -4.639109    -5.170021    -1.584314
O    -5.340845    -4.818273    -1.009466
H    -5.126577    -5.173790    -0.125995
H     2.343032    -6.468213    -4.060037
O     2.006264    -6.138567    -3.206345
H     2.440676    -6.713683    -2.544030
H     0.478884    -3.367272    -4.019393
O     1.279108    -2.996849    -4.444828
H     0.954674    -2.627297    -5.292406
H     1.978127    -1.748828     2.968125
O     2.135370    -2.678801     2.748337
H     1.448628    -2.892879     2.082389
H    -3.006055    -1.803531    -3.219794
O    -2.584871    -0.916441    -3.154981
H    -3.242472    -0.271441    -3.471753
H    -3.188970     4.974475     1.080463
O    -3.971612     5.347334     0.627133
H    -4.387141     5.903406     1.334587
H     0.882939     2.256754     2.583842
O     0.983382     2.253652     1.612488
H     1.711272     1.631948     1.447140
H     0.189125     5.664035    -0.759483
O     0.709523     6.327190    -1.267969
H     0.850485     7.126731    -0.711397
H     0.342363     7.038488     2.591370
O    -0.019585     6.658674     1.773570
H     0.645235     5.989461     1.510902
H    -2.468728     0.211722     3.333875
O    -2.688328    -0.603704     3.837446
H    -1.927343    -0.642559     4.458668
H    -0.880767     0.549023     6.017088
O    -0.606379     0.031416     5.241492
H     0.108110    -0.571518     5.526836
H     0.728758    -4.990938     1.962270
O     0.187470    -5.102199     2.767100
H     0.333682    -6.023045     3.037770
H    -2.096407    -8.086966     0.427986
O    -1.773921    -7.599077     1.213233
H    -2.560248    -7.290562     1.671071
H    -0.384512     6.872264    -2.324329
O    -1.132141     7.291292    -2.822396
H    -1.921352     7.163359    -2.257949
H    -1.111092     4.312796     0.571748
O    -0.739282     4.375337    -0.324775
H    -1.446556     4.133633    -0.956493
H    -4.402212     2.740431     3.505602
O    -4.399721     2.909360     4.470383
H    -4.481427     2.025597     4.878311
H     2.042768    -3.580020     4.227165
O     1.980528    -4.053743     5.079587
H     2.487055    -3.517261     5.710820
H     4.702541    -3.183339     0.820008
O     4.541784    -3.104848    -0.146564
H     3.681095    -2.630187    -0.227693
H    -2.714267    -0.745112    -1.360574
O    -3.040832    -0.476651    -0.485437
H    -3.842857     0.047640    -0.690424
H    -1.612621    -0.751379    -4.641469
O    -1.105263    -0.533507    -5.444864
H    -0.397688     0.064674    -5.158145
H     1.800531    -1.701921    -3.391061
O     1.895523    -0.954512    -2.768996
H     1.115723    -0.379390    -2.895367
H     3.679369    -3.114739     2.532237
O     4.638667    -3.341963     2.456532
H     4.695167    -4.302142     2.583066
H     3.448101    -6.115341     3.101029
O     3.802515    -5.911596     2.200898
H     3.063382    -5.567543     1.659346
H    -3.342455     1.618017    -4.181478
O    -4.185867     1.145149    -3.990781
H    -4.403209     1.289003    -3.033683
H    -5.080877     4.145045     0.067869
O    -5.517789     3.278295    -0.036647
H    -6.448860     3.396195    -0.316970
H     6.747067    -1.166428    -1.373594
O     5.969279    -1.017318    -0.830387
H     5.552448    -1.886032    -0.630224
H     4.603959    -3.152661    -2.489603
O     3.737962    -2.978569    -2.908271
H     3.739684    -3.601059    -3.661656
H     4.452907    -2.289960     5.603975
O     4.111356    -2.757138     6.396611
H     4.447724    -3.661527     6.313463
H    -0.750894     6.334709     5.075486
O    -1.347967     6.908656     5.615051
H    -1.363381     7.786413     5.174992
H     4.704851    -0.122091    -1.480594
O     3.937916     0.420082    -1.745000
H     3.244328    -0.180975    -2.071970
H    -0.745098     4.534577    -4.039168
O    -1.528947     5.076123    -4.246293
H    -1.379475     5.942452    -3.822153
H     0.660191     3.214854    -2.663341
O     0.667149     3.592686    -3.571574
H     0.712717     2.829904    -4.157974
H    -5.365255    -5.199298     1.781877
O    -4.667970    -5.792193     1.424756
H    -3.827832    -5.375605     1.695457
H     7.895395    -1.664397    -4.059101
O     7.632333    -1.357316    -3.163470
H     7.142129    -0.513117    -3.312752
H     3.714531    -5.053023    -5.313355
O     4.475461    -4.675762    -4.832777
H     4.865425    -5.387026    -4.290444
H    -3.771352     0.010205     4.928654
O    -4.371957     0.472575     5.562488
H    -5.030869    -0.186892     5.854282
H     3.481915    -5.931974    -0.541208
O     4.353190    -5.681568    -0.860510
H     4.427672    -4.719786    -0.714112
H     5.004805    -0.313917    -4.169300
O     4.468688    -1.024253    -4.561201
H     4.143644    -1.612941    -3.845506
H    -1.170547     1.581434    -3.942924
O    -1.822005     2.201598    -4.327437
H    -1.465859     2.535336    -5.173354
H     4.901736    -6.305563    -2.341723
O     5.234325    -6.624470    -3.209310
H     6.052053    -7.107613    -3.026245
H     8.756514    -5.075462    -2.934907
O     8.058225    -5.491733    -2.385088
H     8.094634    -6.449133    -2.488520
H     2.339351     4.727819     0.446178
O     1.761033     4.707922     1.217902
H     1.404945     3.787060     1.294916
H    -4.398887    -2.642153     4.222216
O    -5.293608    -2.303834     4.021143
H    -5.158652    -1.521554     3.446778
H    -5.831613    -3.201215     1.308952
O    -6.292800    -3.759977     1.976864
H    -6.104274    -3.325550     2.827932
H     1.695951     3.466823     6.855915
O     1.071715     3.982047     6.323254
H     0.289130     4.133325     6.895997
H     5.016369    -2.161413     3.597541
O     5.036570    -1.443756     4.262259
H     4.223303    -0.888928     4.107887
H     2.412401    -5.574952     4.817911
O     2.793699    -6.457574     4.555870
H     2.049531    -7.040301     4.382077
H     2.260771    -4.502059    -6.809595
O     2.097869    -4.988482    -5.991954
H     1.831986    -4.298155    -5.336336
H     6.452156    -4.089615    -0.524231
O     7.209279    -4.488819    -0.064577
H     7.714154    -4.912711    -0.786928
H    -1.716385     4.481734     7.699471
O    -0.817069     4.580803     8.083618
H    -0.637912     5.540255     8.109637
H    -5.125798     5.699053    -5.592561
O    -4.516454     4.936872    -5.614609
H    -3.760751     5.153353    -6.181746
H     3.173615    -2.591289    -8.479195
O     3.110123    -3.058390    -7.634196
H     3.995283    -3.002120    -7.236584
H    -0.668413     8.834848    -2.275217
O    -0.546178     9.662757    -1.755462
H     0.216807     9.488894    -1.179521
H     2.081226    -0.911257     5.198691
O     1.509808    -1.439151     5.785530
H     1.603620    -1.095096     6.683258
H     5.172706    -2.010712    -5.607108
O     5.546422    -2.756887    -6.146272
H     5.257972    -3.563093    -5.647899
H     5.716554    -5.207587     4.662252
O     5.194920    -5.124087     5.489454
H     4.474795    -5.757737     5.404484
H    -3.960987     1.135599     7.003018
O    -3.768621     1.610733     7.847111
H    -4.645102     1.994539     8.109508
H    -1.859815     9.618746    -0.740303
O    -2.719437     9.489954    -0.265142
H    -3.332185     10.118082    -0.651117
H    -5.951383     4.689900    -2.935587
O    -6.860157     4.569961    -3.279075
H    -6.769524     3.868572    -3.957118
H     0.112072    -7.057513    -1.163299
O     0.578001    -7.492869    -0.416377
H    -0.100190    -7.690747     0.232592
H    -7.638180     3.787600    -1.970028
O    -7.897270     3.199173    -1.230353
H    -7.753507     2.291168    -1.571436
H     3.989877    -0.890907     6.971411
O     3.996749     0.073273     6.962756
H     4.808594     0.364899     6.531529
H     2.255361     5.807018    -1.183546
O     3.191756     5.515579    -1.071630
H     3.367768     4.976766    -1.865589
H     6.568658    -5.915879     0.647106
O     6.201438    -6.652857     1.180332
H     5.296675    -6.377595     1.408398
H    -3.860136     4.718062     7.781666
O    -3.293452     4.257096     7.121354
H    -3.485296     3.313227     7.230826
H     5.781983    -7.933004     0.110879
O     5.493523    -8.619855    -0.526311
H     4.664130    -8.294479    -0.920040
H    -0.545088     2.035979     7.686915
O    -1.178965     1.971283     6.952370
H    -2.046793     1.827810     7.349745
H    -6.374163    -0.127152     1.059371
O    -6.694886    -0.210122     0.146614
H    -7.613217    -0.482307     0.165010
H    -5.360270    -3.066014    -0.596283
O    -5.108023    -2.363917     0.029638
H    -5.680015    -1.591994    -0.155985
H     4.315988     5.590085     0.313380
O     4.651322     5.689507     1.218157
H     3.956939     6.198249     1.672446
H    -9.036184    -1.750173    -2.255609
O    -8.487420    -1.549057    -1.470087
H    -8.613069    -2.286666    -0.833155
H    -5.528641     3.475807    -5.526747
O    -6.044272     2.763651    -5.112498
H    -5.376515     2.178689    -4.700137
H     3.181007    -0.869912    -5.668403
O     2.327421    -0.989934    -6.137257
H     2.411025    -1.840805    -6.607395
H     8.099930    -1.249320    -5.973221
O     8.194851    -2.163920    -5.631261
H     7.295602    -2.527313    -5.783732
H     7.528174     1.136486    -6.284887
O     7.378212     0.270637    -6.694679
H     6.397252     0.204622    -6.731784
H    -7.846509    -3.700450     0.923976
O    -8.525521    -3.593439     0.240231
H    -8.427123    -4.352166    -0.362312
H    -2.412715     8.737298     1.297570
O    -2.259977     8.147925     2.049562
H    -1.489104     7.596548     1.825109
H    -4.443099     6.429874     3.500685
O    -4.614836     6.856430     2.644745
H    -3.852798     7.444173     2.505260
H     3.398880     3.461333    -3.586496
O     3.244671     4.430202    -3.492798
H     2.279316     4.493862    -3.597751
H    -6.109998    -1.604612    -3.447330
O    -6.190497    -2.184898    -2.663922
H    -6.974734    -1.880133    -2.154060
H     6.479099     1.059250     4.723729
O     6.084754     1.596384     5.427656
H     6.270935     2.515840     5.137967
H     1.359155     1.738439    -5.831669
O     1.167563     1.141603    -5.077539
H     1.529852     0.278779    -5.348773
H    -2.475072     2.951490     10.481038
O    -2.261556     2.044696     10.206046
H    -2.859994     1.845024     9.474283
H     7.638859    -0.485284     3.065177
O     6.887948     0.089412     3.233439
H     6.197045    -0.511917     3.614168
H    -5.640143    -8.056457    -0.714985
O    -4.904186    -8.124555    -0.069744
H    -4.908995    -7.308153     0.453565
H    -5.175723    -0.114581    -4.719412
O    -5.791561    -0.827162    -4.959749
H    -6.630902    -0.386838    -5.155942
H     1.890002    -0.180943    -7.527425
O     1.688400     0.292506    -8.370692
H     2.255761    -0.115875    -9.028603
H     4.851430    -1.346214    -9.405377
O     3.918856    -1.131174    -9.647636
H     3.916736    -1.033161    -10.602755
H     7.580686    -2.558710     4.177258
O     7.725403    -2.593154     3.217353
H     7.233895    -3.385480     2.946190
H     6.740397    -5.882665     2.659987
O     6.802050    -5.207262     3.360973
H     7.678165    -5.292176     3.778509
H    -1.824081     8.946334     3.501155
O    -1.575591     9.250122     4.399554
H    -2.423968     9.380811     4.856354
H    -7.391657     1.569021    -5.250135
O    -7.964662     0.823544    -5.005039
H    -8.867109     1.221417    -4.927661
H     6.911561    -1.063774    -8.458351
O     6.378589    -1.833459    -8.699019
H     6.092904    -2.193756    -7.836886
H    -1.688126     6.253855    -7.022425
O    -2.082375     5.426581    -6.749647
H    -1.833749     5.296094    -5.786026
H     0.012801     3.305387     9.018024
O     0.211626     2.385565     9.271520
H    -0.585651     2.119499     9.778679
H     6.765971    -2.764434    -2.725921
O     6.234595    -3.508462    -2.388613
H     6.705667    -4.319831    -2.630371
H    -4.071361    -3.066840    -4.952451
O    -4.225961    -2.952836    -5.917029
H    -4.775739    -2.161398    -5.971576
H     1.993279     2.182239     8.456281
O     2.656029     2.296275     7.765390
H     3.079431     1.426790     7.648799
H    -6.894237    -5.204304    -1.403913
O    -7.809649    -5.474968    -1.648630
H    -7.945091    -5.071692    -2.530944
H    -3.822163     5.249282     5.698870
O    -3.791215     6.018256     5.108655
H    -2.857731     6.314258     5.202336
H    -7.880302     0.084427    -1.966743
O    -7.391986     0.809226    -2.379953
H    -7.621641     0.799120    -3.332899
H     5.844981     0.143697     0.396168
O     5.623565     0.865131     1.017079
H     6.133923     0.669583     1.830059
H    -6.205066     3.298612     7.398174
O    -6.075236     2.779507     8.225951
H    -6.674509     2.017413     8.137534
H     2.296766    -8.063841    -0.865238
O     2.972430    -8.047819    -1.562643
H     2.749089    -8.762026    -2.176308
H    -2.738444    -3.951454    -6.208763
O    -1.982102    -4.515153    -5.979532
H    -1.706604    -4.225913    -5.081398
H    -5.636593     3.752606     5.311102
O    -6.285622     4.147260     5.929527
H    -6.123727     5.091604     5.917153
H    -1.003737    -7.106001    -3.180130
O    -0.531747    -6.435561    -2.652199
H     0.375352    -6.365006    -3.033898
H     4.454150     2.022874     5.117610
O     3.512093     2.260989     4.998468
H     3.128556     2.275640     5.880752
H     4.116209     4.661823     6.293553
O     4.196127     5.392320     5.675762
H     3.627333     5.152294     4.905633
H     2.770338     3.622902     3.915405
O     2.591770     4.562991     3.750503
H     2.470483     4.662497     2.784458
H     9.402606     0.233874    -1.086168
O     8.590492     0.391096    -0.600971
H     8.419958    -0.425666    -0.102529
H    -2.090304     5.310916     10.650861
O    -2.811004     4.680874     10.882181
H    -3.028805     4.856769     11.797754
H     7.985285    -2.992878     0.305447
O     8.404181    -2.144530     0.559681
H     8.341111    -2.140936     1.522270
H     5.375312     3.675232     3.514952
O     6.032786     3.940909     4.179674
H     5.619726     4.657126     4.683833
H    -4.198844     5.010948     9.786919
O    -4.832826     5.161582     9.065606
H    -5.443692     4.412147     9.063215
H    -7.002409    -3.478276    -3.490948
O    -7.622545    -4.090406    -3.939371
H    -7.101800    -4.530962    -4.642699
H     0.037206     6.122707     10.769574
O    -0.828266     6.452720     10.523573
H    -0.714201     6.884738     9.657784
H     2.588947     1.512086    -4.115598
O     3.469014     1.862899    -3.879746
H     3.787969     1.349853    -3.107139
H    -6.957222    -0.231116     7.218327
O    -7.466464     0.546465     7.499973
H    -8.091057     0.729441     6.797015
H    -2.721207    -9.870297    -0.848314
O    -2.659903    -8.928290    -1.006804
H    -3.566187    -8.563789    -0.764637
H    -10.072212     3.073136    -4.892046
O    -10.187161     2.155121    -4.612242
H    -10.402221     2.237663    -3.662216
H    -2.050768    -3.026488     4.603542
O    -2.924879    -3.468007     4.673734
H    -2.918823    -4.085110     3.916900
H    -0.155804    -7.979874     2.466973
O     0.670833    -7.767869     2.913636
H     1.388830    -8.062586     2.325853
H     6.724400    -2.366952     6.372814
O     7.174040    -3.074910     5.906705
H     6.545597    -3.811099     5.869017
H    -5.254233    -2.012741     6.938445
O    -5.931720    -1.515017     6.455800
H    -5.916317    -1.891183     5.546293
H     0.830701     3.050850    -7.119761
O     1.748767     2.720770    -7.178244
H     1.733895     1.975642    -7.806144
H    -3.953892     8.750003     6.678691
O    -3.952511     8.748655     5.721322
H    -4.077085     7.821242     5.452893
H    -2.071590     10.321168    -2.731780
O    -2.974017     10.501105    -3.032213
H    -2.904753     11.136536    -3.744042
H     9.429127    -4.046049     4.019468
O     9.150008    -4.725099     4.641263
H     8.721515    -4.254058     5.366840
H    -0.725569    -5.984490    -5.857128
O    -0.022070    -6.550608    -5.523120
H     0.813580    -6.089798    -5.740972
H     1.820543     8.283918     0.663252
O     1.515672     8.605891    -0.213725
H     2.329665     8.646481    -0.744977
H     3.493434     2.948932    -6.672545
O     4.320945     2.654449    -6.265826
H     4.077055     2.383893    -5.355332
H     3.727869     7.138811    -1.235246
O     3.932174     8.074987    -1.447839
H     4.299892     8.020999    -2.341817
H     4.386135     0.016991    -7.928328
O     4.769468     0.163111    -7.061512
H     4.581122     1.093291    -6.812908
H     6.033771     1.949088    -0.490836
O     6.596841     2.141554    -1.254597
H     7.423267     1.665241    -1.060625
H     6.701469    -8.415718    -1.635301
O     7.334852    -8.199235    -2.371759
H     7.705246    -9.029796    -2.665653
H    -5.292089    -5.783398    -5.417388
O    -5.910498    -5.111675    -5.730281
H    -5.360755    -4.342663    -5.967391
H     0.687584     7.172796     7.599748
O    -0.213536     7.198323     7.960378
H    -0.770164     7.213199     7.143701
H    -8.891411    -2.835396    -4.104017
O    -9.412448    -2.027630    -3.934816
H    -9.128556    -1.361907    -4.565022
H    -2.396692    -5.983150    -2.156701
O    -3.274987    -5.696597    -2.424557
H    -3.463084    -6.071383    -3.310073
H    -2.976480    -5.891822    -5.422743
O    -3.574982    -6.502139    -4.949866
H    -3.092262    -7.322307    -4.784687
H    -1.395990     3.741011    -6.985108
O    -0.853897     2.985263    -6.717311
H    -1.092654     2.200849    -7.267179
H    -0.209393     0.432795    -8.224545
O    -1.104635     0.667300    -7.939034
H    -1.278742     0.142323    -7.141707
H    -10.425620     4.047646    -2.725956
O    -10.490980     3.268071    -2.158830
H    -9.661155     3.242550    -1.650731
H     4.582646     4.092295     1.710761
O     4.375688     3.170168     1.986670
H     5.093354     2.596391     1.705840
H     6.485370     1.421307    -4.233489
O     6.187271     0.791578    -3.542239
H     6.215251     1.284516    -2.696257
H     9.643818    -2.202998    -0.948832
O     9.918944    -1.981021    -1.847397
H     9.116777    -1.646899    -2.289750
H     10.022542    -3.315688    -2.958448
O     9.870063    -4.003629    -3.641789
H     9.451844    -3.519110    -4.365497
H    -7.680205    -8.577645    -1.676448
O    -6.943695    -7.981604    -1.804582
H    -7.323130    -7.069387    -1.793063
H     4.153476     6.098513    -3.828076
O     4.813717     6.800551    -3.743698
H     5.651017     6.348411    -3.607348
H     0.110474    -8.158111    -5.234485
O     0.135723    -9.140894    -5.103587
H     0.287067    -9.503763    -5.976398
H    -2.315849    -8.667292    -2.732733
O    -2.083372    -8.401148    -3.641935
H    -1.436988    -9.018565    -4.003053
H     2.205374    -10.801771    -3.521998
O     2.154982    -9.847556    -3.493879
H     1.368812    -9.578163    -4.019514
H     6.832913     3.351948    -4.588059
O     6.888592     2.674832    -5.290542
H     6.094362     2.811128    -5.829479
H    -3.542596    -3.729872     7.711919
O    -3.658441    -2.941647     7.182827
H    -3.408060    -3.179380     6.263965
H    -0.632908    -3.348255    -6.736876
O    -0.004189    -2.615231    -6.744561
H    -0.487893    -1.841661    -6.401148
H     0.658649     0.458675     8.743230
O     0.666286    -0.255194     8.101619
H    -0.255657    -0.545401     8.015124
H    -5.843765     7.371652    -4.245136
O    -6.346036     6.752369    -4.806269
H    -6.631713     6.020720    -4.215344
H    -4.290041     9.108166    -3.256640
O    -4.823900     8.310718    -3.150895
H    -4.414187     7.831397    -2.412618
H    -9.719631     5.795116    -4.636402
O    -10.251326     4.989310    -4.473133
H    -11.132753     5.189089    -4.790379
H     2.773138     6.520042     6.135316
O     1.813006     6.614745     6.234154
H     1.470780     5.700905     6.131638
H     4.797593     8.561864     0.079172
O     5.116139     8.561967     0.999651
H     5.524668     7.698234     1.129132
H     4.156752    -7.406628    -4.369837
O     3.394127    -7.690165    -4.906288
H     3.120318    -8.534666    -4.533430
H     0.375855     8.662731     4.234646
O     1.054189     8.019323     4.004865
H     1.282539     7.526059     4.818771
H     5.232002     4.211225    -3.168162
O     6.193626     4.177871    -3.119936
H     6.404088     3.599066    -2.370476
H    -2.559296    -1.550296     7.565568
O    -2.049945    -0.756356     7.785352
H    -2.676074    -0.131729     8.161714
H    -9.038466     7.935831    -4.135297
O    -8.975240     7.351831    -4.892526
H    -8.018124     7.189799    -5.029397
H     3.552000    -8.969347     1.065710
O     2.875116    -8.338359     1.316112
H     3.349357    -7.533261     1.596933
H     3.580713     8.182768     1.825709
O     2.791543     7.617456     1.938100
H     2.345560     7.851585     2.764862
N     8.781392    -3.756633    -8.191898
H     8.071794    -3.285736    -8.645753
H     8.868094    -3.266969    -7.362448
