27
Coordinates from ORCA-job grain_mol_opt.QMRegion
  H   -4.61824660430846      0.59345640584796      2.17633645863192
  O   -4.91763291249966     -0.34876025296909      2.13174869962961
  H   -4.33292485169099     -0.77572063889468      1.49255086843142
  H   -5.79946293541745     -3.21733992227695      1.29114260765042
  O   -6.29435885017492     -3.78597385700039      1.94253916703911
  H   -6.10395977893008     -3.36443580710813      2.80612903450440
  H   -6.24370170721878     -0.12450678438554      0.99660314871607
  O   -6.75308514348302     -0.28084842128003      0.17717695044679
  H   -7.64429245723637     -0.50993810444094      0.49388120613789
  H   -5.35135305685913     -3.14699409899991     -0.64578639403354
  O   -5.13523662496427     -2.43716291881513     -0.00884470233822
  H   -5.76568540525535     -1.69653714613276     -0.17285337462760
  H   -9.04341710866341     -1.80933463941433     -2.48231615142547
  O   -8.52683993859922     -1.55855429436064     -1.68546991672290
  H   -8.56806123941149     -2.31057129813437     -1.05779432593582
  H   -7.78894320442030     -3.77554447972768      0.82229210304654
  O   -8.49698435601655     -3.66361895190074      0.15376590364263
  H   -8.41438896704370     -4.42748482665042     -0.45196877265864
  H   -6.06048000444316     -1.63732381318088     -3.68399749787850
  O   -6.16430019382118     -2.18689846893520     -2.87242230477642
  H   -6.94294201891606     -1.85197559386839     -2.38305393450460
  H   -7.88512392105492      0.15066753562224     -2.04093909308666
  O   -7.38145897311621      0.84930294002242     -2.48343691863738
  H   -7.63171793824248      0.83807950358796     -3.42853341796877
  O   -9.31080434375696     -1.02040419444920      1.24252450313202
  H   -9.89454221697035     -0.63884164553859      0.57821849837965
  H   -9.32480325232989     -1.96717162128045      1.03826221074196
