603

H     0.187374     3.033241    -0.671509
O     0.711521     2.362589    -1.161550
H     1.650199     2.495896    -0.890691
H    -0.077297    -1.308210     3.157722
O     0.313296    -0.606996     2.613691
H    -0.165342     0.205696     2.847310
H    -2.408904     2.410061    -0.527362
O    -2.202472     1.939015     0.297751
H    -2.211438     0.991386     0.071245
H    -4.665412     0.536189     2.196204
O    -4.984409    -0.396553     2.205739
H    -4.478887    -0.872818     1.538813
H     0.059618    -0.307023     0.958053
O    -0.141735    -0.070225     0.032231
H     0.198451     0.826091    -0.090516
H    -0.151430    -3.578601     3.782774
O    -0.431523    -2.749595     4.204703
H     0.215428    -2.578594     4.905620
H    -4.902535     2.499289     1.351590
O    -4.249607     2.110001     1.964797
H    -3.411713     2.094666     1.442719
H    -3.253919     3.931183    -2.196279
O    -2.541425     3.301700    -1.969973
H    -2.177219     3.020484    -2.828999
H    -0.124576    -3.804104     0.507965
O     0.214286    -2.986603     0.926641
H    -0.573605    -2.501337     1.238722
H    -2.379653    -1.542948     2.477364
O    -2.191115    -2.008342     1.636270
H    -2.449862    -1.421028     0.906885
H     2.067948    -1.437806    -1.116918
O     2.300699    -1.691113    -0.199736
H     1.512489    -2.120292     0.184230
H    -1.396157     1.821875     1.920531
O    -1.490460     1.423392     2.796010
H    -1.473612     2.134258     3.462003
H     0.205510    -2.700561    -1.564885
O    -0.551896    -2.091023    -1.617588
H    -0.372871    -1.363640    -0.984637
H    -3.438444    -2.929303    -0.383356
O    -2.720988    -3.420610    -0.804534
H    -2.011919    -2.788877    -1.023768
H     2.768476     0.132130     2.938284
O     2.868098    -0.050704     3.900055
H     2.958943     0.842106     4.304855
H    -3.151656     6.203702    -0.273786
O    -3.069361     6.807660    -1.048077
H    -3.006842     7.715202    -0.702207
H     3.895003     0.590847     1.189912
O     2.945157     0.406382     1.307607
H     2.708707    -0.345095     0.726700
H    -5.790857     0.830743    -1.595755
O    -4.881136     1.159290    -1.468263
H    -4.995645     1.982726    -0.950806
H    -1.226324     5.393056     2.217250
O    -1.851146     4.641697     2.118695
H    -1.905597     4.223264     2.983085
H     3.482433     2.769686     0.431366
O     3.233800     2.726668    -0.507368
H     3.567644     1.885209    -0.859090
H     1.490480    -4.691740    -2.248562
O     1.554287    -3.915110    -1.674523
H     2.347644    -3.452063    -2.026112
H    -0.930891    -0.082620    -2.540418
O    -0.296447     0.569301    -2.864751
H    -0.036781     1.153257    -2.128644
H     1.700371    -4.681524    -0.177192
O     1.808695    -5.318886     0.565084
H     1.346571    -6.130617     0.268694
H    -1.230049    -3.264025    -2.874659
O    -1.056728    -3.947200    -3.535710
H    -0.928162    -4.793969    -3.067157
H    -2.789811     3.300126     4.718165
O    -1.808904     3.300991     4.682590
H    -1.512964     2.898058     5.517266
H     0.951462     5.036066     4.084707
O     0.004659     5.264506     4.144728
H    -0.461711     4.458036     4.401239
H    -1.729607    -4.652205    -0.366574
O    -0.963434    -5.192012    -0.082525
H    -1.309429    -5.879858     0.495452
H    -3.934375     5.882857    -2.539263
O    -4.278251     5.037581    -2.874094
H    -4.087494     5.003570    -3.832896
H    -2.429513    -3.693834     1.942299
O    -2.446242    -4.598091     2.318081
H    -1.505879    -4.834889     2.457131
H    -4.699828    -2.984642    -2.890016
O    -3.847754    -3.215984    -3.297527
H    -3.514575    -4.008997    -2.832910
H     0.334534     1.374683     4.623346
O     0.836180     2.137366     4.289024
H     0.888236     2.794397     4.997305
H    -4.654782    -5.175301    -1.563949
O    -5.356723    -4.823683    -0.989137
H    -5.141922    -5.178516    -0.105582
H     2.326593    -6.473685    -4.039823
O     1.989750    -6.146521    -3.185631
H     2.426094    -6.719879    -2.523293
H     0.461691    -3.374236    -4.001993
O     1.263666    -3.006258    -4.425488
H     0.942990    -2.633820    -5.273193
H     1.963064    -1.750639     2.985208
O     2.119169    -2.681366     2.767819
H     1.433358    -2.895493     2.100889
H    -3.022063    -1.810080    -3.201861
O    -2.601270    -0.923291    -3.135441
H    -3.257078    -0.277788    -3.455238
H    -3.232901     4.830326     1.338468
O    -4.017405     5.218064     0.889222
H    -4.358952     5.814743     1.606950
H     0.868717     2.254079     2.598755
O     0.966704     2.249453     1.627548
H     1.695240     1.628811     1.461067
H     0.166886     5.661867    -0.752648
O     0.704202     6.316753    -1.253189
H     0.829749     7.122005    -0.702765
H     0.326620     7.033826     2.604794
O    -0.042404     6.647712     1.793309
H     0.626849     5.986922     1.519990
H    -2.484289     0.209827     3.350156
O    -2.705105    -0.604114     3.855663
H    -1.943311    -0.643655     4.475819
H    -0.896230     0.548301     6.034077
O    -0.622444     0.030638     5.258566
H     0.092914    -0.571846     5.543249
H     0.712748    -4.993235     1.982703
O     0.171481    -5.104464     2.787666
H     0.318236    -6.025012     3.058881
H    -2.111743    -8.090918     0.450930
O    -1.789586    -7.603200     1.236386
H    -2.576033    -7.293440     1.693165
H    -0.368177     6.869335    -2.347363
O    -1.109656     7.292773    -2.847072
H    -1.889954     7.143449    -2.274411
H    -1.133050     4.310303     0.582201
O    -0.754237     4.362806    -0.310835
H    -1.462709     4.138836    -0.947419
H    -4.415872     2.735010     3.521178
O    -4.418875     2.908885     4.485443
H    -4.496945     2.025384     4.895121
H     2.026889    -3.581063     4.246423
O     1.964570    -4.053781     5.099538
H     2.472131    -3.517036     5.729734
H     4.686787    -3.186578     0.838798
O     4.525084    -3.110824    -0.127410
H     3.665446    -2.634582    -0.209753
H    -2.729096    -0.750788    -1.342734
O    -3.056758    -0.482720    -0.467719
H    -3.857994     0.042039    -0.674662
H    -1.626722    -0.758252    -4.623520
O    -1.120529    -0.542508    -5.427824
H    -0.412549     0.056823    -5.143675
H     1.787289    -1.708179    -3.373642
O     1.878777    -0.962460    -2.749221
H     1.100687    -0.385757    -2.879495
H     3.663518    -3.117083     2.551429
O     4.622895    -3.344368     2.477484
H     4.679333    -4.304546     2.603171
H     3.432133    -6.117031     3.122070
O     3.786506    -5.915114     2.221652
H     3.047944    -5.570186     1.679689
H    -3.356980     1.609711    -4.168990
O    -4.200605     1.136151    -3.977450
H    -4.416710     1.282588    -3.021143
H    -5.222976     4.072295     0.182188
O    -5.641378     3.206958     0.032052
H    -6.575873     3.294686    -0.258316
H     6.727381    -1.169381    -1.364033
O     5.955982    -1.021770    -0.810497
H     5.538346    -1.890287    -0.613858
H     4.589200    -3.158976    -2.470729
O     3.720461    -2.989097    -2.885392
H     3.724120    -3.606858    -3.642340
H     4.436736    -2.289579     5.622289
O     4.095314    -2.756313     6.415474
H     4.432059    -3.660610     6.332794
H    -0.769232     6.332735     5.088402
O    -1.370487     6.907639     5.623441
H    -1.379338     7.785633     5.183908
H     4.689988    -0.127458    -1.464536
O     3.921357     0.413787    -1.725697
H     3.229553    -0.187294    -2.056228
H    -0.762489     4.528879    -4.027181
O    -1.548452     5.066075    -4.235007
H    -1.400597     5.934746    -3.812393
H     0.645026     3.207858    -2.649823
O     0.652908     3.584160    -3.557954
H     0.698151     2.821361    -4.144246
H    -5.380640    -5.202528     1.802499
O    -4.683365    -5.795825     1.446196
H    -3.843179    -5.378707     1.716150
H     7.872406    -1.674029    -4.036602
O     7.615149    -1.361976    -3.136381
H     7.126722    -0.518659    -3.291792
H     3.696158    -5.061632    -5.291166
O     4.458708    -4.687638    -4.810669
H     4.844712    -5.398479    -4.265807
H    -3.786317     0.010784     4.945378
O    -4.387509     0.473621     5.578939
H    -5.045857    -0.186308     5.871029
H     3.465809    -5.935552    -0.520906
O     4.337965    -5.687009    -0.839183
H     4.412862    -4.724577    -0.695235
H     4.989031    -0.323794    -4.159593
O     4.455143    -1.036435    -4.549188
H     4.130240    -1.620130    -3.831208
H    -1.185923     1.575280    -3.927737
O    -1.839545     2.192711    -4.312352
H    -1.483621     2.528512    -5.157652
H     4.885053    -6.311901    -2.318038
O     5.217314    -6.636059    -3.184215
H     6.036456    -7.115496    -2.998763
H     8.737791    -5.075164    -2.924680
O     8.047887    -5.494547    -2.365812
H     8.083951    -6.451703    -2.468770
H     2.321573     4.726908     0.458502
O     1.746058     4.705151     1.232573
H     1.388589     3.784984     1.306497
H    -4.414442    -2.643723     4.241029
O    -5.309196    -2.305006     4.040439
H    -5.174033    -1.523950     3.464329
H    -5.847495    -3.204980     1.327852
O    -6.308819    -3.762943     1.996535
H    -6.119716    -3.327996     2.847136
H     1.680700     3.467221     6.870400
O     1.055710     3.982022     6.338167
H     0.273149     4.132814     6.910410
H     5.000290    -2.162798     3.616163
O     5.020083    -1.445117     4.280977
H     4.207374    -0.889887     4.125129
H     2.396618    -5.575054     4.838907
O     2.777899    -6.458125     4.578172
H     2.033718    -7.040744     4.404093
H     2.249219    -4.507308    -6.789252
O     2.081730    -4.996453    -5.973719
H     1.816506    -4.305891    -5.317714
H     6.438037    -4.091838    -0.506612
O     7.192232    -4.494162    -0.044268
H     7.699556    -4.915461    -0.765877
H    -1.734986     4.486241     7.709218
O    -0.837198     4.583377     8.096553
H    -0.655225     5.542258     8.121518
H    -5.137823     5.701747    -5.567917
O    -4.538865     4.934150    -5.587512
H    -3.784893     5.140996    -6.159959
H     3.268319    -2.516121    -8.435575
O     3.182801    -3.049883    -7.634744
H     4.059733    -3.023725    -7.206677
H    -0.689593     8.826228    -2.274441
O    -0.581565     9.653639    -1.747635
H     0.180874     9.484914    -1.170871
H     2.065464    -0.911638     5.214871
O     1.493734    -1.438096     5.802941
H     1.589365    -1.093778     6.700286
H     5.194975    -2.011386    -5.693590
O     5.541929    -2.776850    -6.216388
H     5.269804    -3.567476    -5.699058
H     5.700672    -5.207823     4.683256
O     5.179208    -5.124278     5.510615
H     4.458726    -5.757486     5.425359
H    -3.976141     1.138026     7.018562
O    -3.783933     1.615781     7.861376
H    -4.660527     1.998325     8.123853
H    -1.808975     9.606629    -0.769373
O    -2.635419     9.439932    -0.240654
H    -3.269481     10.081309    -0.573370
H    -5.983058     4.627046    -2.892159
O    -6.881235     4.490983    -3.266882
H    -6.743225     3.763508    -3.916126
H     0.096742    -7.062671    -1.141345
O     0.562457    -7.498335    -0.394390
H    -0.115717    -7.694594     0.255073
H    -7.645465     3.780961    -1.963333
O    -7.915830     3.195500    -1.223255
H    -7.772434     2.285505    -1.561364
H     3.974482    -0.889195     6.988090
O     3.981341     0.074999     6.980133
H     4.792351     0.366758     6.547253
H     2.240964     5.801978    -1.167997
O     3.178687     5.509799    -1.056680
H     3.353092     4.971676    -1.851421
H     6.552805    -5.918834     0.667680
O     6.186049    -6.656064     1.201490
H     5.281260    -6.380594     1.429265
H    -3.878635     4.723940     7.790261
O    -3.315773     4.265515     7.125229
H    -3.500855     3.320807     7.239998
H     5.767251    -7.935718     0.133444
O     5.479734    -8.623189    -0.503859
H     4.649714    -8.298710    -0.897199
H    -0.560417     2.037585     7.701553
O    -1.194880     1.973719     6.967474
H    -2.062362     1.829322     7.365151
H    -6.389369    -0.132898     1.076084
O    -6.711972    -0.213149     0.163746
H    -7.629004    -0.489496     0.182723
H    -5.375381    -3.071221    -0.577485
O    -5.124996    -2.368632     0.048672
H    -5.695434    -1.596475    -0.139838
H     4.300635     5.585420     0.325256
O     4.635974     5.685127     1.230378
H     3.941696     6.195098     1.683380
H    -9.051754    -1.756535    -2.238123
O    -8.504186    -1.554148    -1.452053
H    -8.628830    -2.292057    -0.815286
H    -5.542338     3.475410    -5.505147
O    -6.058873     2.759452    -5.096099
H    -5.390277     2.172583    -4.687966
H     3.167395    -0.879144    -5.652823
O     2.311159    -1.000948    -6.117499
H     2.397722    -1.849347    -6.591664
H     8.101428    -1.332170    -6.032349
O     8.111780    -2.196497    -5.576474
H     7.255864    -2.597616    -5.826224
H     7.603404     1.007471    -6.311460
O     7.415642     0.158965    -6.724868
H     6.434283     0.107473    -6.760195
H    -7.861966    -3.704548     0.942850
O    -8.541393    -3.598097     0.259408
H    -8.442572    -4.356920    -0.343028
H    -2.268226     8.764347     1.351112
O    -2.184253     8.124382     2.079223
H    -1.393579     7.583583     1.880222
H    -4.446107     6.554015     3.628100
O    -4.608994     6.983106     2.764443
H    -3.762997     7.443990     2.586590
H     3.382948     3.455227    -3.572848
O     3.229388     4.424066    -3.478421
H     2.264170     4.488401    -3.584220
H    -6.124930    -1.612061    -3.430048
O    -6.206606    -2.191452    -2.645848
H    -6.990547    -1.885637    -2.136668
H     6.462652     1.058715     4.739836
O     6.068449     1.596293     5.443630
H     6.254286     2.515500     5.152645
H     1.342949     1.728840    -5.816499
O     1.150760     1.131608    -5.062633
H     1.515665     0.269653    -5.333629
H    -2.491542     2.955964     10.494928
O    -2.278280     2.048798     10.221105
H    -2.876043     1.848619     9.488928
H     7.623206    -0.486231     3.081280
O     6.872488     0.088028     3.251798
H     6.181637    -0.513718     3.631330
H    -5.655518    -8.061435    -0.692200
O    -4.919986    -8.129412    -0.046517
H    -4.924275    -7.312271     0.475657
H    -5.190525    -0.123035    -4.703108
O    -5.807543    -0.835615    -4.941369
H    -6.645865    -0.394513    -5.139748
H     1.872652    -0.190345    -7.510779
O     1.669514     0.280925    -8.354514
H     2.246408    -0.123098    -9.008123
H     4.855169    -1.379815    -9.303732
O     3.929271    -1.152628    -9.584778
H     3.908265    -1.269303    -10.533934
H     7.564073    -2.559890     4.196829
O     7.709915    -2.595228     3.237187
H     7.217550    -3.386697     2.965360
H     6.724614    -5.884432     2.680679
O     6.785944    -5.209707     3.382342
H     7.662569    -5.293391     3.798879
H    -1.830761     8.954861     3.500892
O    -1.594031     9.247902     4.405186
H    -2.445450     9.382283     4.854762
H    -7.406255     1.562849    -5.233454
O    -7.979120     0.816978    -4.988482
H    -8.881862     1.213709    -4.913132
H     6.909313    -1.066089    -8.406188
O     6.328836    -1.788447    -8.669561
H     6.102369    -2.238726    -7.837445
H    -1.706481     6.243802    -7.008141
O    -2.098998     5.414756    -6.738050
H    -1.853830     5.286161    -5.772463
H    -0.003373     3.308316     9.032210
O     0.195199     2.388818     9.286404
H    -0.601999     2.122951     9.793679
H     6.748827    -2.766080    -2.707413
O     6.220215    -3.511504    -2.365957
H     6.689653    -4.321329    -2.613832
H    -4.086973    -3.075030    -4.933839
O    -4.242992    -2.962678    -5.898367
H    -4.790673    -2.169873    -5.953781
H     1.977714     2.183329     8.471751
O     2.640005     2.297881     7.780618
H     3.064220     1.428735     7.663817
H    -6.909734    -5.210085    -1.383493
O    -7.825302    -5.480683    -1.628008
H    -7.960326    -5.078181    -2.510809
H    -3.849945     5.263125     5.688903
O    -3.813056     6.030967     5.097036
H    -2.877181     6.319717     5.199954
H    -7.896585     0.078222    -1.950141
O    -7.410739     0.805216    -2.362416
H    -7.636986     0.793653    -3.316335
H     5.829036     0.140836     0.412306
O     5.606361     0.861430     1.033967
H     6.118126     0.667091     1.846034
H    -6.224247     3.298607     7.410276
O    -6.093118     2.782188     8.239172
H    -6.690501     2.018306     8.152660
H     2.280948    -8.068115    -0.842408
O     2.957399    -8.054287    -1.539148
H     2.732897    -8.768280    -2.152485
H    -2.754314    -3.961012    -6.189028
O    -2.000056    -4.526762    -5.958038
H    -1.722689    -4.234582    -5.061408
H    -5.652825     3.749484     5.325650
O    -6.306138     4.147216     5.938232
H    -6.133045     5.089547     5.938724
H    -1.019589    -7.112647    -3.158551
O    -0.547684    -6.442652    -2.630202
H     0.359208    -6.371311    -3.012221
H     4.438344     2.023394     5.131414
O     3.495956     2.260949     5.013331
H     3.113431     2.275869     5.895940
H     4.100889     4.662717     6.305059
O     4.177599     5.394459     5.688356
H     3.610749     5.152534     4.917204
H     2.755088     3.622496     3.927885
O     2.574118     4.562180     3.763494
H     2.454583     4.661469     2.796761
H     9.383231     0.227859    -1.074749
O     8.577911     0.389362    -0.579608
H     8.403612    -0.430202    -0.087204
H    -2.106432     5.315338     10.662887
O    -2.828012     4.686303     10.894222
H    -3.044508     4.861437     11.810264
H     7.969376    -2.995583     0.324049
O     8.389787    -2.148556     0.579118
H     8.324797    -2.143923     1.541470
H     5.360957     3.673951     3.526986
O     6.016365     3.939285     4.194342
H     5.603692     4.657926     4.694964
H    -4.214800     5.015535     9.798553
O    -4.849658     5.164372     9.077519
H    -5.459164     4.413787     9.076956
H    -7.018019    -3.485430    -3.471998
O    -7.638251    -4.098098    -3.919667
H    -7.117299    -4.539023    -4.622765
H     0.021054     6.126832     10.781433
O    -0.844218     6.456784     10.534617
H    -0.729558     6.888179     9.668654
H     2.572969     1.503664    -4.100673
O     3.451836     1.856277    -3.863567
H     3.772966     1.342631    -3.092720
H    -6.971926    -0.230556     7.235989
O    -7.481548     0.547411     7.516207
H    -8.107152     0.727619     6.813458
H    -2.736917    -9.875468    -0.823750
O    -2.675462    -8.933647    -0.983187
H    -3.581641    -8.568713    -0.741479
H    -10.088164     3.064431    -4.877308
O    -10.204353     2.146728    -4.597175
H    -10.419209     2.229066    -3.647290
H    -2.066302    -3.027575     4.622647
O    -2.940746    -3.468628     4.693180
H    -2.934418    -4.086241     3.936634
H    -0.171369    -7.981950     2.489392
O     0.655076    -7.770445     2.936671
H     1.373278    -8.064777     2.348946
H     6.708305    -2.365730     6.390791
O     7.158328    -3.074947     5.926973
H     6.529284    -3.810584     5.888870
H    -5.269649    -2.011665     6.956699
O    -5.946998    -1.513899     6.473855
H    -5.931369    -1.890782     5.564478
H     0.814386     3.039555    -7.106236
O     1.732373     2.709418    -7.164331
H     1.717989     1.962692    -7.790865
H    -3.960407     8.759983     6.686085
O    -3.976466     8.747894     5.728988
H    -4.088785     7.814802     5.474231
H    -2.105541     10.312049    -2.718410
O    -3.014702     10.481252    -3.006705
H    -2.959997     11.111828    -3.724652
H     9.412834    -4.046543     4.038664
O     9.135135    -4.725181     4.661609
H     8.705661    -4.253602     5.386272
H    -0.741243    -5.993743    -5.834953
O    -0.036496    -6.559380    -5.502631
H     0.798017    -6.096371    -5.721169
H     1.806645     8.279331     0.672791
O     1.499062     8.603839    -0.201405
H     2.310339     8.642604    -0.736486
H     3.477062     2.939965    -6.658223
O     4.305661     2.650098    -6.250546
H     4.061946     2.376676    -5.341164
H     3.711599     7.133140    -1.224165
O     3.918247     8.069100    -1.436312
H     4.284425     8.014376    -2.330886
H     4.376466     0.004994    -7.909903
O     4.755035     0.151111    -7.041111
H     4.571835     1.082636    -6.796477
H     6.017967     1.945038    -0.474942
O     6.582422     2.138732    -1.237154
H     7.407872     1.660344    -1.044053
H     6.686372    -8.418696    -1.610944
O     7.321091    -8.206911    -2.348236
H     7.688240    -9.040582    -2.637200
H    -5.307848    -5.791692    -5.396277
O    -5.926666    -5.120585    -5.709747
H    -5.376997    -4.351384    -5.946990
H     0.670359     7.174375     7.609462
O    -0.231116     7.200968     7.969626
H    -0.787592     7.214514     7.153233
H    -8.906840    -2.843505    -4.085111
O    -9.428138    -2.035655    -3.916744
H    -9.143936    -1.370531    -4.547460
H    -2.412027    -5.988595    -2.135988
O    -3.291356    -5.704238    -2.402838
H    -3.478857    -6.078226    -3.288849
H    -2.993236    -5.899434    -5.400825
O    -3.591480    -6.510570    -4.928087
H    -3.107919    -7.330113    -4.762668
H    -1.411200     3.732758    -6.969140
O    -0.870673     2.975094    -6.702595
H    -1.110401     2.191783    -7.252921
H    -0.224112     0.422675    -8.208379
O    -1.120773     0.654971    -7.924721
H    -1.293109     0.132582    -7.125464
H    -10.442149     4.039956    -2.715414
O    -10.508607     3.263803    -2.143674
H    -9.676255     3.237122    -1.640019
H     4.566197     4.089609     1.723696
O     4.361785     3.168206     2.004755
H     5.077090     2.593749     1.719194
H     6.469320     1.412057    -4.219892
O     6.168857     0.786914    -3.525616
H     6.199301     1.282565    -2.681907
H     9.626400    -2.208748    -0.935074
O     9.901607    -1.993693    -1.835131
H     9.100159    -1.655938    -2.277431
H     9.961744    -3.302237    -3.105016
O     9.695053    -3.954478    -3.779919
H     9.299471    -3.447213    -4.499417
H    -7.696246    -8.583220    -1.653284
O    -6.959513    -7.987560    -1.781820
H    -7.338603    -7.075176    -1.771294
H     4.137226     6.092550    -3.815848
O     4.798558     6.793812    -3.732581
H     5.634998     6.340177    -3.595753
H     0.095069    -8.165596    -5.211903
O     0.120524    -9.148579    -5.080489
H     0.270589    -9.511666    -5.953406
H    -2.331283    -8.673605    -2.709418
O    -2.099523    -8.409160    -3.619269
H    -1.452084    -9.026097    -3.979198
H     2.186902    -10.809396    -3.495888
O     2.139255    -9.854960    -3.470731
H     1.352999    -9.584982    -3.996116
H     6.815633     3.345115    -4.574647
O     6.874293     2.667202    -5.275840
H     6.079831     2.799270    -5.815427
H    -3.557878    -3.728156     7.731237
O    -3.674162    -2.940314     7.201667
H    -3.423596    -3.178672     6.282885
H    -0.650109    -3.357746    -6.718041
O    -0.020445    -2.625911    -6.725727
H    -0.502461    -1.850794    -6.383453
H     0.642553     0.461380     8.759922
O     0.650367    -0.252640     8.118564
H    -0.271306    -0.543519     8.032078
H    -5.899194     7.337632    -4.249133
O    -6.388263     6.715282    -4.818416
H    -6.652744     5.969993    -4.230787
H    -4.250144     9.071462    -3.086833
O    -4.884356     8.339581    -3.064972
H    -5.244256     8.329663    -2.162186
H    -9.735221     5.787676    -4.623470
O    -10.267827     4.983005    -4.457040
H    -11.147729     5.180293    -4.780065
H     2.756252     6.520386     6.147057
O     1.796050     6.615200     6.247224
H     1.454445     5.701292     6.143370
H     4.780077     8.557932     0.088825
O     5.099835     8.558920     1.009183
H     5.508173     7.695021     1.138257
H     4.140134    -7.415256    -4.343674
O     3.381924    -7.701277    -4.885151
H     3.103481    -8.542719    -4.508763
H     0.362528     8.663138     4.245243
O     1.037860     8.016749     4.016346
H     1.267301     7.524958     4.830792
H     5.215783     4.204419    -3.155607
O     6.177431     4.174376    -3.104681
H     6.387725     3.593837    -2.356626
H    -2.574808    -1.548830     7.583080
O    -2.066163    -0.754305     7.802550
H    -2.692645    -0.130089     8.178797
H    -9.062208     7.925068    -4.121262
O    -8.989177     7.344455    -4.880308
H    -8.029931     7.188998    -5.005660
H     3.537032    -8.972197     1.089308
O     2.859606    -8.341968     1.340020
H     3.333177    -7.535781     1.619298
H     3.565857     8.178911     1.834936
O     2.778131     7.612213     1.951525
H     2.332519     7.849504     2.777194
N    -5.875158     7.513994    -0.491429
H    -5.053389     7.005818    -0.421923
H    -6.051653     7.797750     0.411249
