36
Coordinates from ORCA-job grain_mol_opt.QMRegion
  H   -4.72776728739831     -2.95551949170411     -2.93766352797035
  O   -3.90407669596881     -3.22162539778910     -3.39409499547202
  H   -3.53765241161836     -3.97273580399768     -2.88313392274081
  H   0.41075385108242     -3.41155333362853     -4.06675579840618
  O   1.22663203178629     -3.03030753999718     -4.45830485030240
  H   0.90719612403778     -2.64318807682893     -5.29480076478163
  H   -1.56635143699087     -0.72596251569987     -4.55100157235875
  O   -1.09980604755923     -0.43265348486889     -5.35796200492405
  H   -0.38707838506398      0.15002900347910     -5.03651879288926
  H   -5.23159972648878     -0.01591212363909     -4.59480535132046
  O   -5.85572638662283     -0.71850124696374     -4.86639719120516
  H   -6.70017915857842     -0.25468782619820     -5.01894183958224
  H   -4.17567550513826     -3.06305161011168     -5.10157922255928
  O   -4.49728958325718     -2.83839560207430     -6.00745181286667
  H   -5.03269804004753     -2.03627537733460     -5.84746485294973
  H   -2.11152287230644     -4.44946709810834     -6.57803150905561
  O   -1.96858899369144     -5.06210123387688     -5.82713242836469
  H   -1.69466278368959     -4.50933366821185     -5.06864934762157
  H   -0.57897468419407     -6.16025274277355     -5.74489214682056
  O   0.18506309190107     -6.63909573769623     -5.38484022765873
  H   0.98518620031874     -6.19086079139779     -5.72159009085524
  H   -5.58056119204744     -5.81335866116946     -5.43657576737551
  O   -6.16062264140754     -5.16422113205405     -5.86189890741642
  H   -5.59050057853181     -4.39352645278348     -6.03183234010442
  H   -3.20638616742557     -6.14826990107098     -5.25813988937833
  O   -3.85831925026236     -6.71229666881597     -4.78816702065954
  H   -3.36471049119144     -7.51452266619637     -4.54414676980551
  H   -0.13026780810271      0.50044822903948     -8.22646666873617
  O   -1.06530882818890      0.71060751070455     -8.04481352615712
  H   -1.27491404433431      0.20051867996704     -7.24793545879104
  H   -0.59107048531843     -2.70834990687395     -7.39266739453123
  O   0.11251396190772     -2.27067196785037     -6.90000071794501
  H   -0.36911836226821     -1.59507552155023     -6.37865272845966
  O   -2.52474206452450     -3.18716936116328     -7.76116889560070
  H   -3.27691850764699     -2.89447757049005     -7.18352455694716
  H   -2.92572978559704     -3.46345565964873     -8.58970610624262
