603

H     0.209669     3.012207    -0.667988
O     0.732021     2.345019    -1.163329
H     1.670997     2.472509    -0.889402
H    -0.070547    -1.338597     3.143273
O     0.326511    -0.636042     2.605464
H    -0.153079     0.176560     2.838079
H    -2.389725     2.392575    -0.526504
O    -2.179475     1.918239     0.295444
H    -2.196589     0.971389     0.066209
H    -4.654905     0.520096     2.183857
O    -4.972319    -0.413218     2.193895
H    -4.468582    -0.888513     1.524996
H     0.073056    -0.332928     0.950328
O    -0.125606    -0.093384     0.024519
H     0.213662     0.803667    -0.093565
H    -0.175878    -3.606816     3.748769
O    -0.442871    -2.776601     4.177971
H     0.202951    -2.633420     4.885087
H    -4.877671     2.506822     1.340135
O    -4.238057     2.094615     1.953053
H    -3.395724     2.078608     1.439476
H    -3.239886     3.886449    -2.197217
O    -2.502829     3.287890    -1.968566
H    -2.144309     3.003528    -2.829360
H    -0.119819    -3.828126     0.488508
O     0.220264    -3.011862     0.908808
H    -0.567107    -2.526286     1.222144
H    -2.372119    -1.567743     2.462631
O    -2.181544    -2.030591     1.620344
H    -2.440519    -1.441348     0.892722
H     2.079805    -1.461765    -1.127491
O     2.311257    -1.718752    -0.211079
H     1.521281    -2.146743     0.170641
H    -1.382987     1.795757     1.918276
O    -1.473169     1.395335     2.793323
H    -1.459949     2.106099     3.460044
H     0.214271    -2.718933    -1.580797
O    -0.541106    -2.106795    -1.632729
H    -0.361114    -1.382731    -0.996377
H    -3.431549    -2.943563    -0.402612
O    -2.714071    -3.434504    -0.824371
H    -2.003921    -2.803283    -1.040959
H     2.786055     0.094847     2.932242
O     2.886380    -0.089083     3.893796
H     2.978253     0.802470     4.300765
H    -3.519258     6.362709    -0.519262
O    -3.280674     7.027714    -1.217044
H    -3.138267     7.871009    -0.743652
H     3.909082     0.555920     1.187180
O     2.958712     0.373736     1.302008
H     2.721477    -0.376400     0.719772
H    -5.774138     0.830420    -1.601338
O    -4.863496     1.156637    -1.473640
H    -4.974066     1.983272    -0.959061
H    -1.201724     5.368230     2.229329
O    -1.827120     4.621656     2.110242
H    -1.904951     4.200659     2.971526
H     3.502495     2.738716     0.434048
O     3.253485     2.698527    -0.505192
H     3.585984     1.857229    -0.858572
H     1.495519    -4.710875    -2.269150
O     1.560806    -3.936056    -1.692806
H     2.355504    -3.473907    -2.042363
H    -0.915279    -0.096312    -2.549175
O    -0.280432     0.556650    -2.870903
H    -0.019739     1.136451    -2.132027
H     1.703996    -4.707597    -0.197822
O     1.810884    -5.347489     0.542422
H     1.346732    -6.157231     0.243526
H    -1.221863    -3.275785    -2.892819
O    -1.048487    -3.956817    -3.556019
H    -0.922716    -4.805567    -3.090190
H    -2.771138     3.270125     4.717605
O    -1.789855     3.266085     4.683847
H    -1.496784     2.861209     5.518260
H     0.971001     4.999922     4.092096
O     0.024234     5.230851     4.144139
H    -0.445653     4.426748     4.402252
H    -1.725914    -4.669850    -0.389443
O    -0.960883    -5.211851    -0.106556
H    -1.308632    -5.901281     0.468574
H    -3.908464     5.822591    -2.576287
O    -4.259589     4.989860    -2.909151
H    -4.104933     4.958682    -3.877505
H    -2.426285    -3.716379     1.921146
O    -2.446401    -4.621543     2.294419
H    -1.506792    -4.863388     2.431225
H    -4.690736    -2.987707    -2.909908
O    -3.838544    -3.219484    -3.317188
H    -3.507998    -4.015103    -2.855061
H     0.341083     1.338903     4.619373
O     0.856570     2.094046     4.291489
H     0.900494     2.756278     4.996796
H    -4.651388    -5.183088    -1.590345
O    -5.352813    -4.831338    -1.015100
H    -5.139749    -5.189293    -0.132333
H     2.329298    -6.489216    -4.065291
O     1.992763    -6.163575    -3.210375
H     2.426908    -6.740298    -2.549515
H     0.471229    -3.385828    -4.019161
O     1.274164    -3.017778    -4.440941
H     0.954767    -2.642803    -5.287991
H     1.970783    -1.789718     2.970126
O     2.121557    -2.721002     2.751937
H     1.438031    -2.928126     2.080222
H    -3.009826    -1.816739    -3.216759
O    -2.587139    -0.930758    -3.148366
H    -3.242319    -0.283546    -3.465562
H    -3.180990     4.951997     1.098360
O    -3.962871     5.327190     0.645585
H    -4.377476     5.882713     1.353926
H     0.886211     2.221904     2.599401
O     0.984914     2.220279     1.628045
H     1.712246     1.598417     1.460613
H     0.200029     5.638361    -0.737998
O     0.721445     6.301837    -1.244890
H     0.864374     7.099519    -0.686198
H     0.353600     7.004823     2.615978
O    -0.009132     6.627891     1.797184
H     0.654501     5.958056     1.532884
H    -2.474180     0.183414     3.339755
O    -2.698745    -0.632723     3.840227
H    -1.938328    -0.678185     4.461395
H    -0.945606     0.573301     5.993622
O    -0.661242     0.055669     5.222332
H     0.037950    -0.564794     5.509568
H     0.712414    -5.025916     1.957347
O     0.165410    -5.135967     2.758390
H     0.314179    -6.054142     3.035899
H    -2.116512    -8.110195     0.416924
O    -1.793576    -7.625077     1.203639
H    -2.579546    -7.315812     1.661582
H    -0.370009     6.851380    -2.300522
O    -1.116535     7.273368    -2.798015
H    -1.906261     7.145436    -2.234428
H    -1.104351     4.286814     0.589248
O    -0.731944     4.350710    -0.306833
H    -1.439017     4.111724    -0.939764
H    -4.400475     2.714941     3.517848
O    -4.398423     2.881211     4.483206
H    -4.482639     1.996682     4.888772
H     1.928051    -3.744616     4.128691
O     1.732665    -4.197705     4.976998
H     2.310317    -3.739610     5.613413
H     4.694003    -3.218697     0.830707
O     4.532439    -3.143581    -0.135158
H     3.674051    -2.665201    -0.219463
H    -2.716913    -0.762970    -1.354984
O    -3.043893    -0.496340    -0.479335
H    -3.844208     0.030703    -0.683954
H    -1.611626    -0.763825    -4.634713
O    -1.104606    -0.545393    -5.437892
H    -0.394553     0.049877    -5.150668
H     1.799801    -1.724782    -3.384913
O     1.892708    -0.980559    -2.758774
H     1.115644    -0.402402    -2.887434
H     3.671910    -3.148806     2.542150
O     4.631560    -3.375379     2.481302
H     4.682024    -4.338943     2.585110
H     3.429384    -6.156155     3.099143
O     3.786453    -5.949787     2.200236
H     3.048622    -5.604528     1.657559
H    -3.337493     1.607272    -4.171623
O    -4.182561     1.136275    -3.982417
H    -4.399764     1.278579    -3.025199
H    -5.073967     4.128543     0.082939
O    -5.513041     3.263031    -0.023103
H    -6.443400     3.383739    -0.304487
H     6.739711    -1.202811    -1.369512
O     5.967587    -1.055140    -0.816882
H     5.548756    -1.923378    -0.622095
H     4.598432    -3.184346    -2.484368
O     3.730235    -3.011154    -2.898801
H     3.732871    -3.626711    -3.657641
H     4.147431    -2.510358     5.828674
O     3.845960    -3.176772     6.474410
H     4.370031    -3.971223     6.243989
H    -0.742777     6.297856     5.097882
O    -1.339321     6.871396     5.638870
H    -1.352305     7.750332     5.201173
H     4.704657    -0.155829    -1.469094
O     3.937513     0.387883    -1.729541
H     3.244613    -0.210900    -2.061953
H    -0.734847     4.517601    -4.021045
O    -1.517398     5.061677    -4.226853
H    -1.365466     5.926747    -3.801139
H     0.667055     3.191702    -2.647214
O     0.674202     3.571696    -3.554351
H     0.720963     2.810419    -4.142708
H    -5.380067    -5.218703     1.775220
O    -4.683900    -5.812436     1.417416
H    -3.843026    -5.397933     1.689490
H     7.885649    -1.702149    -4.043044
O     7.628020    -1.392176    -3.142160
H     7.141838    -0.547305    -3.295545
H     3.702988    -5.076380    -5.311176
O     4.465772    -4.705307    -4.828767
H     4.850031    -5.418770    -4.286063
H    -3.778048    -0.019572     4.933406
O    -4.375443     0.441768     5.571256
H    -5.037212    -0.216215     5.859788
H     3.466872    -5.964402    -0.544400
O     4.340178    -5.716602    -0.860210
H     4.416916    -4.755005    -0.712585
H     5.005505    -0.345278    -4.164127
O     4.469701    -1.055018    -4.556329
H     4.143435    -1.640615    -3.840498
H    -1.166453     1.565789    -3.931500
O    -1.816796     2.188135    -4.314471
H    -1.459440     2.522812    -5.159686
H     4.887016    -6.338293    -2.341047
O     5.219192    -6.660208    -3.208018
H     6.037017    -7.142339    -3.023658
H     8.742661    -5.108165    -2.940803
O     8.051298    -5.527723    -2.383814
H     8.085403    -6.484633    -2.489820
H     2.347383     4.694860     0.465894
O     1.766742     4.674967     1.235901
H     1.410203     3.754414     1.311982
H    -4.410723    -2.669543     4.221816
O    -5.304383    -2.327318     4.021898
H    -5.166696    -1.544730     3.448537
H    -5.841611    -3.218415     1.306730
O    -6.304451    -3.777587     1.973255
H    -6.115790    -3.345206     2.825287
H     1.712037     3.462744     6.881973
O     1.062698     3.933566     6.330143
H     0.287720     4.092262     6.909469
H     4.978314    -2.241910     3.645851
O     4.987000    -1.553625     4.348110
H     4.201003    -0.978357     4.160855
H     2.364131    -5.625034     4.806355
O     2.775018    -6.501171     4.553008
H     2.041322    -7.093945     4.369312
H     2.258285    -4.514183    -6.808833
O     2.089255    -5.005355    -5.994855
H     1.825045    -4.316387    -5.336900
H     6.443298    -4.127453    -0.521620
O     7.196130    -4.533006    -0.059891
H     7.703180    -4.953054    -0.782472
H    -1.713235     4.439803     7.720032
O    -0.814884     4.532177     8.107713
H    -0.630390     5.490813     8.134316
H    -5.111445     5.695770    -5.574469
O    -4.504217     4.932049    -5.597753
H    -3.747123     5.148105    -6.163325
H     3.283146    -2.520315    -8.448305
O     3.195474    -3.055638    -7.648755
H     4.072308    -3.033472    -7.220255
H    -0.650024     8.814264    -2.246826
O    -0.526499     9.640795    -1.725073
H     0.235941     9.463951    -1.149239
H     2.011451    -0.861738     5.071198
O     1.486918    -1.385169     5.714286
H     1.642151    -0.979508     6.575767
H     5.208635    -2.028403    -5.703248
O     5.554275    -2.793006    -6.228040
H     5.280061    -3.584651    -5.713318
H     5.703388    -5.255186     4.660579
O     5.172864    -5.191780     5.485060
H     4.457713    -5.829763     5.384924
H    -3.964013     1.098326     7.013374
O    -3.769605     1.571274     7.858296
H    -4.645234     1.957285     8.121075
H    -1.840537     9.597146    -0.710918
O    -2.700862     9.469407    -0.236600
H    -3.311888     10.099584    -0.621949
H    -5.941097     4.682439    -2.920183
O    -6.850021     4.564960    -3.264264
H    -6.760256     3.865025    -3.943954
H     0.095845    -7.082081    -1.170307
O     0.560236    -7.520650    -0.424237
H    -0.118881    -7.717821     0.224023
H    -7.630408     3.781589    -1.957584
O    -7.891630     3.192072    -1.219472
H    -7.749380     2.284554    -1.562478
H     3.948657    -0.286509     7.625092
O     3.958628     0.442963     6.967453
H     4.873158     0.622974     6.704413
H     2.266890     5.777658    -1.160831
O     3.202367     5.484073    -1.048267
H     3.378299     4.946651    -1.843390
H     6.553394    -5.957845     0.647859
O     6.184588    -6.695205     1.180190
H     5.279725    -6.418708     1.406575
H    -3.856514     4.681825     7.798856
O    -3.290624     4.219971     7.138368
H    -3.487792     3.277006     7.244280
H     5.763617    -7.971415     0.106243
O     5.475092    -8.656058    -0.533412
H     4.646008    -8.328802    -0.926466
H    -0.553620     2.010126     7.704779
O    -1.179678     1.917515     6.966490
H    -2.052139     1.791152     7.360135
H    -6.377469    -0.142592     1.063952
O    -6.697567    -0.222933     0.150767
H    -7.616516    -0.493075     0.167668
H    -5.368499    -3.079870    -0.597935
O    -5.115575    -2.379971     0.030162
H    -5.685354    -1.606181    -0.154491
H     4.326189     5.552970     0.337229
O     4.660955     5.650120     1.242462
H     3.967145     6.158796     1.697563
H    -9.040473    -1.752390    -2.256566
O    -8.492088    -1.554147    -1.470058
H    -8.619574    -2.293031    -0.835020
H    -5.519363     3.473075    -5.513647
O    -6.036824     2.761133    -5.101248
H    -5.370351     2.173877    -4.689939
H     3.183443    -0.891560    -5.660500
O     2.327239    -1.009578    -6.126262
H     2.412216    -1.856862    -6.602876
H     8.117130    -1.354720    -6.037630
O     8.124933    -2.220290    -5.584132
H     7.268490    -2.618891    -5.836021
H     7.624478     0.986914    -6.310135
O     7.434914     0.140081    -6.726104
H     6.453529     0.090865    -6.762278
H    -7.857112    -3.712479     0.919329
O    -8.535665    -3.602601     0.235581
H    -8.438279    -4.359945    -0.368860
H    -2.396828     8.712478     1.324639
O    -2.246225     8.121029     2.075422
H    -1.476198     7.568551     1.850450
H    -4.433338     6.404640     3.521281
O    -4.604009     6.833467     2.666312
H    -3.840496     7.419703     2.528214
H     3.406886     3.435573    -3.567454
O     3.254124     4.404548    -3.470800
H     2.289222     4.470181    -3.577610
H    -6.112873    -1.610582    -3.446102
O    -6.195645    -2.192536    -2.664101
H    -6.979333    -1.886803    -2.154106
H     6.469271     1.010164     4.750042
O     6.089191     1.560148     5.450512
H     6.276101     2.475234     5.147833
H     1.365598     1.720697    -5.817827
O     1.171046     1.122245    -5.065605
H     1.534014     0.259978    -5.338630
H    -2.475680     2.906261     10.495732
O    -2.264217     1.999904     10.217385
H    -2.864729     1.803598     9.486396
H     7.617599    -0.553117     3.094060
O     6.861034     0.014151     3.266727
H     6.177268    -0.581957     3.653351
H    -5.659201    -8.069439    -0.728286
O    -4.923941    -8.140770    -0.082607
H    -4.927206    -7.325436     0.442422
H    -5.174423    -0.119785    -4.714213
O    -5.791954    -0.830418    -4.956198
H    -6.629984    -0.387625    -5.152318
H     1.892012    -0.194280    -7.517282
O     1.690330     0.280603    -8.359432
H     2.266493    -0.122666    -9.014200
H     4.872939    -1.384737    -9.311723
O     3.947774    -1.154373    -9.592682
H     3.927102    -1.268805    -10.542133
H     7.577905    -2.615539     4.177244
O     7.723501    -2.647404     3.214894
H     7.223760    -3.433476     2.941823
H     6.720565    -5.930877     2.662193
O     6.783905    -5.258326     3.366159
H     7.659737    -5.346216     3.782338
H    -1.809312     8.915128     3.529171
O    -1.561278     9.216475     4.428529
H    -2.409833     9.347990     4.884650
H    -7.386487     1.569922    -5.242428
O    -7.961493     0.825207    -4.999560
H    -8.863020     1.224975    -4.921836
H     6.927434    -1.078869    -8.411689
O     6.344951    -1.798679    -8.677557
H     6.117283    -2.251348    -7.847083
H    -1.671020     6.246008    -7.000451
O    -2.069092     5.419952    -6.729546
H    -1.820344     5.285752    -5.766442
H     0.017414     3.245296     9.036445
O     0.206506     2.319603     9.277765
H    -0.588036     2.061126     9.793905
H     6.758647    -2.795629    -2.717914
O     6.228087    -3.540798    -2.378845
H     6.695849    -4.350945    -2.629082
H    -4.076432    -3.073725    -4.953352
O    -4.230797    -2.957642    -5.917710
H    -4.777887    -2.164266    -5.970936
H     1.936661     2.387286     8.562792
O     2.679689     2.622518     7.991710
H     3.117845     1.778781     7.740550
H    -6.906612    -5.213042    -1.411428
O    -7.822442    -5.481243    -1.657431
H    -7.956281    -5.075580    -2.538927
H    -3.816514     5.217523     5.717299
O    -3.783627     5.987698     5.128958
H    -2.849465     6.281725     5.223749
H    -7.880836     0.078977    -1.962937
O    -7.390719     0.803704    -2.374079
H    -7.619460     0.796261    -3.327268
H     5.843732     0.102837     0.410296
O     5.623431     0.821994     1.034740
H     6.127926     0.620731     1.848130
H    -6.203089     3.267457     7.411800
O    -6.073930     2.745531     8.237953
H    -6.675814     1.985705     8.147831
H     2.277430    -8.093374    -0.873257
O     2.954717    -8.078722    -1.569188
H     2.729310    -8.790299    -2.185048
H    -2.744700    -3.958826    -6.210513
O    -1.991266    -4.526313    -5.981083
H    -1.714418    -4.238063    -5.083035
H    -5.633860     3.725556     5.325158
O    -6.281710     4.119773     5.945085
H    -6.119157     5.064023     5.933637
H    -1.019187    -7.123560    -3.188078
O    -0.545958    -6.455968    -2.657767
H     0.361226    -6.385684    -3.039136
H     4.457695     1.977243     5.120896
O     3.522532     2.236555     4.987954
H     3.131341     2.256281     5.864212
H     4.111896     4.614732     6.322079
O     4.202491     5.341146     5.700494
H     3.633010     5.105433     4.930028
H     2.776911     3.586665     3.930539
O     2.593629     4.526731     3.768482
H     2.475460     4.627750     2.802535
H     9.398349     0.188361    -1.074173
O     8.592600     0.349440    -0.579544
H     8.416726    -0.471654    -0.090141
H    -2.087346     5.263497     10.670949
O    -2.809404     4.634050     10.900271
H    -3.028027     4.808860     11.815861
H     7.976749    -3.036299     0.311523
O     8.398555    -2.190681     0.568693
H     8.333826    -2.189427     1.531316
H     5.378174     3.630529     3.534944
O     6.039084     3.897824     4.195442
H     5.623343     4.606626     4.708288
H    -4.195802     4.970932     9.804770
O    -4.828853     5.124179     9.083180
H    -5.441588     4.376305     9.079141
H    -7.009589    -3.482040    -3.494663
O    -7.630679    -4.091995    -3.944815
H    -7.110300    -4.531906    -4.648854
H     0.042078     6.072194     10.792656
O    -0.823475     6.402239     10.546948
H    -0.708571     6.836410     9.682260
H     2.593537     1.487338    -4.101510
O     3.472406     1.838445    -3.862214
H     3.792522     1.321003    -3.093313
H    -6.964166    -0.259714     7.222554
O    -7.471521     0.518564     7.505543
H    -8.095628     0.704398     6.802901
H    -2.744585    -9.889455    -0.863568
O    -2.680881    -8.947309    -1.020217
H    -3.586441    -8.581072    -0.777804
H    -10.064199     3.079025    -4.882590
O    -10.181626     2.160660    -4.604961
H    -10.396859     2.241569    -3.654836
H    -2.068936    -3.058048     4.602011
O    -2.942700    -3.500808     4.673418
H    -2.936283    -4.115449     3.914441
H    -0.176823    -8.011389     2.458762
O     0.650822    -7.803207     2.905264
H     1.367255    -8.098138     2.315939
H     6.577183    -2.311243     5.979219
O     7.161348    -3.071505     5.886379
H     6.556690    -3.825666     5.860291
H    -5.262752    -2.043419     6.940528
O    -5.939915    -1.544649     6.458637
H    -5.924760    -1.918353     5.547947
H     0.840011     3.036107    -7.104704
O     1.757362     2.704785    -7.162363
H     1.742722     1.959472    -7.790792
H    -3.941491     8.716098     6.704981
O    -3.940663     8.717022     5.747610
H    -4.066132     7.790405     5.476926
H    -2.049699     10.304469    -2.700873
O    -2.951452     10.487487    -3.001550
H    -2.879889     11.123881    -3.712291
H     9.414574    -4.101825     4.028020
O     9.128456    -4.776858     4.651539
H     8.711019    -4.302328     5.379175
H    -0.736257    -5.997006    -5.861382
O    -0.033031    -6.565037    -5.529934
H     0.802700    -6.103491    -5.746651
H     1.836051     8.251597     0.691488
O     1.532321     8.576393    -0.184926
H     2.346729     8.615812    -0.715684
H     3.502340     2.929724    -6.654138
O     4.329971     2.637440    -6.246384
H     4.085088     2.361024    -5.338238
H     3.742217     7.106359    -1.207866
O     3.948398     8.042613    -1.418530
H     4.317199     7.989156    -2.312160
H     4.396639    -0.003790    -7.914037
O     4.774215     0.139237    -7.044289
H     4.593274     1.070508    -6.797539
H     6.036592     1.910754    -0.472086
O     6.601907     2.104910    -1.233356
H     7.426213     1.624131    -1.040995
H     6.683125    -8.451281    -1.639430
O     7.318630    -8.238305    -2.375595
H     7.684593    -9.071673    -2.666964
H    -5.302874    -5.786390    -5.425123
O    -5.919767    -5.112841    -5.737097
H    -5.368217    -4.344271    -5.971712
H     0.695708     7.124197     7.627113
O    -0.205901     7.150051     7.986898
H    -0.761562     7.169411     7.169757
H    -8.896608    -2.833767    -4.107390
O    -9.416260    -2.025412    -3.936705
H    -9.130352    -1.358682    -4.564946
H    -2.410053    -5.999723    -2.163338
O    -3.288070    -5.711650    -2.430452
H    -3.476141    -6.083152    -3.317370
H    -2.988186    -5.899401    -5.428645
O    -3.588145    -6.510331    -4.958001
H    -3.106772    -7.331582    -4.794618
H    -1.386540     3.731472    -6.969466
O    -0.846627     2.974390    -6.701540
H    -1.084474     2.191327    -7.253977
H    -0.202886     0.425541    -8.214681
O    -1.098598     0.660423    -7.929954
H    -1.273721     0.134232    -7.133729
H    -10.416966     4.049339    -2.714618
O    -10.484497     3.268788    -2.149085
H    -9.654823     3.240205    -1.640843
H     4.588698     4.051895     1.731397
O     4.378740     3.129357     2.003528
H     5.096201     2.555038     1.723642
H     6.489617     1.387625    -4.218161
O     6.186649     0.761318    -3.526054
H     6.218237     1.254077    -2.680718
H     9.636284    -2.249624    -0.942114
O     9.912503    -2.032617    -1.841426
H     9.112118    -1.691747    -2.283127
H     9.970857    -3.337529    -3.114987
O     9.702783    -3.987176    -3.791844
H     9.309315    -3.476877    -4.510336
H    -7.700110    -8.583807    -1.691918
O    -6.962046    -7.989354    -1.818454
H    -7.339248    -7.076189    -1.805230
H     4.167655     6.070910    -3.802704
O     4.829222     6.771466    -3.715901
H     5.665250     6.316692    -3.580134
H     0.094753    -8.172712    -5.244220
O     0.118102    -9.156070    -5.115700
H     0.267651    -9.517014    -5.989595
H    -2.334933    -8.682856    -2.745025
O    -2.101203    -8.415808    -3.653661
H    -1.455470    -9.033628    -4.015112
H     2.180012    -10.826010    -3.534827
O     2.134351    -9.871540    -3.506960
H     1.348862    -9.598510    -4.031925
H     6.840768     3.321154    -4.566914
O     6.898023     2.645096    -5.269924
H     6.104459     2.780738    -5.809876
H    -3.558742    -3.762836     7.711806
O    -3.660943    -2.970194     7.186446
H    -3.419229    -3.210175     6.265740
H    -0.638404    -3.358800    -6.735986
O    -0.007540    -2.627883    -6.741080
H    -0.488606    -1.853173    -6.396761
H     0.582975     0.394531     8.779773
O     0.604702    -0.456151     8.323466
H    -0.337206    -0.678805     8.184640
H    -5.827059     7.366778    -4.223201
O    -6.330657     6.750086    -4.786025
H    -6.617772     6.017419    -4.197090
H    -4.270224     9.097549    -3.230023
O    -4.806267     8.301326    -3.126083
H    -4.397649     7.819137    -2.389029
H    -9.705877     5.799575    -4.620545
O    -10.239577     4.994631    -4.459420
H    -11.120253     5.197087    -4.777033
H     2.779535     6.470483     6.163697
O     1.819246     6.567014     6.259930
H     1.475341     5.653834     6.153922
H     4.813938     8.524052     0.110017
O     5.131845     8.521802     1.030736
H     5.538329     7.656871     1.158868
H     4.141009    -7.433900    -4.370757
O     3.382401    -7.716144    -4.913597
H     3.101831    -8.558363    -4.540503
H     0.389798     8.625051     4.264170
O     1.066778     7.980699     4.033220
H     1.293686     7.484767     4.845962
H     5.241365     4.178674    -3.146364
O     6.202832     4.147537    -3.094486
H     6.411818     3.563910    -2.348427
H    -2.544116    -1.586627     7.574652
O    -2.026756    -0.799185     7.801056
H    -2.652766    -0.171567     8.173674
H    -9.020537     7.937528    -4.114246
O    -8.958155     7.355200    -4.872834
H    -8.001237     7.191257    -5.009279
H     3.530665    -9.006154     1.056492
O     2.855103    -8.374503     1.308637
H     3.330515    -7.570601     1.590715
H     3.595089     8.143802     1.854878
O     2.803950     7.580836     1.965277
H     2.358955     7.813294     2.793004
N     3.404775    -1.571490     8.707116
H     3.517882    -2.307201     8.075789
H     2.447219    -1.445371     8.783802
