603

H     0.302766     2.950367    -0.580520
O     0.842582     2.358882    -1.147340
H     1.781214     2.463047    -0.851600
H    -0.071252    -1.304639     3.153562
O     0.330315    -0.605650     2.614690
H    -0.146580     0.209688     2.842510
H    -2.345871     2.428974    -0.549494
O    -2.145114     1.958710     0.277309
H    -2.162858     1.010708     0.052049
H    -4.639957     0.578406     2.154468
O    -4.962964    -0.352821     2.165446
H    -4.457428    -0.833299     1.501527
H     0.090149    -0.306108     0.956912
O    -0.106604    -0.071895     0.029994
H     0.243725     0.820734    -0.098527
H    -0.168459    -3.573904     3.778496
O    -0.444878    -2.742576     4.198308
H     0.198159    -2.576779     4.904009
H    -4.846563     2.562702     1.302462
O    -4.212467     2.150887     1.921197
H    -3.367471     2.126885     1.411987
H    -3.171993     3.921994    -2.229731
O    -2.438318     3.323456    -1.992114
H    -2.069193     3.041146    -2.850536
H    -0.118688    -3.800681     0.504248
O     0.223565    -2.986263     0.926092
H    -0.562914    -2.494061     1.230806
H    -2.370911    -1.521233     2.455982
O    -2.179393    -1.988426     1.616638
H    -2.427863    -1.399353     0.885061
H     2.104973    -1.451551    -1.104816
O     2.328369    -1.706613    -0.185553
H     1.533688    -2.129626     0.191826
H    -1.359767     1.834754     1.905356
O    -1.458643     1.438819     2.781475
H    -1.443814     2.151146     3.446119
H     0.235433    -2.700554    -1.566362
O    -0.517450    -2.086077    -1.624451
H    -0.337486    -1.359144    -0.990625
H    -3.419134    -2.900177    -0.411739
O    -2.702464    -3.397488    -0.827140
H    -1.986787    -2.771463    -1.041739
H     2.786734     0.112889     2.954552
O     2.878720    -0.069351     3.917249
H     2.972317     0.822842     4.321995
H    -3.469872     6.398501    -0.550773
O    -3.236714     7.068702    -1.246848
H    -3.082388     7.908004    -0.770787
H     3.929203     0.561103     1.214154
O     2.976706     0.386445     1.325193
H     2.738000    -0.363415     0.742654
H    -5.732403     0.882195    -1.640092
O    -4.821060     1.203845    -1.506778
H    -4.930525     2.032213    -0.995361
H    -1.158758     5.407109     2.208286
O    -1.785247     4.663738     2.082450
H    -1.875655     4.244096     2.943454
H     3.544569     2.735438     0.456741
O     3.297563     2.703184    -0.482526
H     3.628575     1.863819    -0.842870
H     1.509392    -4.702004    -2.239828
O     1.575575    -3.926202    -1.664994
H     2.374670    -3.469057    -2.011410
H    -0.873294    -0.073912    -2.550945
O    -0.230896     0.572314    -2.870690
H     0.027500     1.154635    -2.133291
H     1.704294    -4.692937    -0.166959
O     1.802020    -5.330957     0.576364
H     1.335527    -6.138966     0.276728
H    -1.194503    -3.252698    -2.886746
O    -1.022541    -3.938073    -3.545978
H    -0.903945    -4.785302    -3.075821
H    -2.758034     3.327817     4.689730
O    -1.776468     3.321518     4.662472
H    -1.491630     2.915905     5.499673
H     0.998745     5.029874     4.087633
O     0.053971     5.269427     4.129499
H    -0.425804     4.470083     4.385858
H    -1.723851    -4.636311    -0.381763
O    -0.964281    -5.182371    -0.091832
H    -1.320260    -5.867104     0.483726
H    -3.834941     5.859078    -2.623017
O    -4.184859     5.025890    -2.954274
H    -4.027422     4.990143    -3.922365
H    -2.433539    -3.671729     1.921320
O    -2.460143    -4.575613     2.297551
H    -1.522730    -4.819765     2.443438
H    -4.662358    -2.946621    -2.927519
O    -3.809267    -3.185001    -3.328768
H    -3.485558    -3.980131    -2.861153
H     0.350252     1.375581     4.620635
O     0.863064     2.133507     4.291894
H     0.910495     2.791316     4.999723
H    -4.644286    -5.137001    -1.600535
O    -5.347809    -4.779807    -1.031112
H    -5.142260    -5.135733    -0.145830
H     2.344717    -6.490980    -4.024581
O     2.004218    -6.161309    -3.172847
H     2.431304    -6.737752    -2.507256
H     0.504048    -3.377072    -4.001425
O     1.312401    -3.016502    -4.418963
H     1.001201    -2.640539    -5.268689
H     1.965679    -1.763358     2.996257
O     2.116781    -2.695247     2.780498
H     1.434392    -2.904505     2.108366
H    -2.973382    -1.785384    -3.226851
O    -2.546811    -0.901752    -3.156233
H    -3.193983    -0.251501    -3.482976
H    -3.133974     4.995792     1.066545
O    -3.911810     5.373922     0.609258
H    -4.328252     5.934000     1.313075
H     0.907102     2.249029     2.605399
O     1.015774     2.250409     1.635205
H     1.735276     1.618492     1.470422
H     0.127725     5.698372    -0.648079
O     0.644250     6.377990    -1.150018
H     0.794938     7.156890    -0.564746
H     0.401926     7.035386     2.596997
O     0.047514     6.663667     1.772139
H     0.703136     5.981688     1.520145
H    -2.467993     0.232798     3.327718
O    -2.698333    -0.579317     3.831769
H    -1.941569    -0.624439     4.457535
H    -0.897058     0.560138     6.023050
O    -0.620763     0.040670     5.249598
H     0.086767    -0.568200     5.540030
H     0.697901    -4.996015     1.985552
O     0.150205    -5.102688     2.786799
H     0.287446    -6.024358     3.059109
H    -2.139351    -8.071843     0.434008
O    -1.819239    -7.586699     1.221893
H    -2.606619    -7.270107     1.672347
H    -0.482505     6.866574    -2.196664
O    -1.169968     7.282843    -2.785547
H    -1.985025     7.189146    -2.236493
H    -1.136578     4.273906     0.602329
O    -0.729088     4.320699    -0.284243
H    -1.434448     4.072907    -0.923374
H    -4.382444     2.776132     3.482372
O    -4.385628     2.946885     4.447027
H    -4.477260     2.064239     4.855459
H     2.006335    -3.593656     4.258437
O     1.934249    -4.065506     5.111305
H     2.440866    -3.532274     5.745122
H     4.694385    -3.221132     0.870378
O     4.540413    -3.144552    -0.096887
H     3.685316    -2.661244    -0.185957
H    -2.685629    -0.726739    -1.365890
O    -3.017696    -0.455476    -0.493379
H    -3.813137     0.075390    -0.706176
H    -1.557619    -0.744247    -4.638585
O    -1.045384    -0.534422    -5.440144
H    -0.335030     0.061864    -5.153288
H     1.838373    -1.720791    -3.363410
O     1.930787    -0.976477    -2.737632
H     1.158994    -0.392676    -2.874977
H     3.659118    -3.143104     2.575510
O     4.617283    -3.377895     2.509402
H     4.664980    -4.338570     2.635058
H     3.399923    -6.140894     3.145227
O     3.762673    -5.941950     2.247540
H     3.030865    -5.591632     1.699778
H    -3.271674     1.635991    -4.197343
O    -4.123255     1.172982    -4.012753
H    -4.344394     1.318924    -3.057529
H    -5.027467     4.181067     0.037974
O    -5.470301     3.317906    -0.066704
H    -6.397743     3.441979    -0.356508
H     6.766534    -1.220158    -1.318348
O     5.993937    -1.066652    -0.768068
H     5.567190    -1.931655    -0.576025
H     4.621796    -3.194065    -2.439585
O     3.757347    -3.017802    -2.860323
H     3.761671    -3.635144    -3.617526
H     4.416474    -2.320669     5.651758
O     4.066023    -2.783941     6.442985
H     4.395311    -3.691215     6.362756
H    -0.714343     6.343811     5.075058
O    -1.310583     6.923272     5.609598
H    -1.315979     7.800586     5.168852
H     4.737899    -0.160905    -1.433535
O     3.976186     0.387189    -1.699413
H     3.282479    -0.207666    -2.036846
H    -0.954949     4.486801    -3.989522
O    -1.635656     5.118439    -4.285581
H    -1.430989     5.949228    -3.804840
H     0.800404     3.305563    -2.614536
O     0.674512     3.671609    -3.524347
H     0.682152     2.875988    -4.068628
H    -5.395281    -5.157100     1.760266
O    -4.700117    -5.756314     1.409699
H    -3.858713    -5.345501     1.685439
H     7.927732    -1.734655    -3.981589
O     7.666503    -1.420279    -3.083355
H     7.185726    -0.572952    -3.242898
H     3.734455    -5.090027    -5.266079
O     4.496738    -4.722449    -4.780157
H     4.872600    -5.436236    -4.232214
H    -3.783559     0.043896     4.913225
O    -4.385232     0.511571     5.542595
H    -5.051509    -0.142587     5.829541
H     3.461976    -5.960850    -0.497744
O     4.338788    -5.719544    -0.808732
H     4.419845    -4.757517    -0.665237
H     5.055950    -0.360860    -4.126405
O     4.520915    -1.071008    -4.519410
H     4.185151    -1.650685    -3.803412
H    -1.125073     1.469374    -3.891731
O    -1.733963     2.133062    -4.282538
H    -1.424993     2.357764    -5.180907
H     4.891594    -6.349095    -2.283517
O     5.227627    -6.676457    -3.147045
H     6.041639    -7.162091    -2.955393
H     8.758329    -5.143043    -2.862436
O     8.061361    -5.556828    -2.308207
H     8.090303    -6.514236    -2.410906
H     2.410172     4.689409     0.479978
O     1.809515     4.693170     1.233692
H     1.446834     3.773819     1.318681
H    -4.427109    -2.604926     4.204863
O    -5.317620    -2.259236     3.997509
H    -5.172072    -1.479323     3.422444
H    -5.842725    -3.156239     1.281481
O    -6.313314    -3.710386     1.946947
H    -6.127354    -3.276360     2.798700
H     1.696285     3.459801     6.876271
O     1.080377     3.980714     6.339271
H     0.294262     4.136771     6.905853
H     4.995499    -2.199464     3.649892
O     5.016361    -1.481351     4.314383
H     4.209194    -0.919995     4.152430
H     2.356004    -5.590379     4.854250
O     2.732311    -6.476513     4.596856
H     1.984875    -7.053198     4.417006
H     2.303280    -4.525739    -6.774613
O     2.125962    -5.013148    -5.960104
H     1.860974    -4.319957    -5.306559
H     6.448637    -4.140626    -0.461664
O     7.196027    -4.549003     0.006471
H     7.705317    -4.974453    -0.711306
H    -1.714594     4.501415     7.694178
O    -0.817336     4.594406     8.084745
H    -0.631201     5.552339     8.111259
H    -5.010321     5.732824    -5.628207
O    -4.405384     4.967461    -5.642144
H    -3.634730     5.185352    -6.188882
H     3.350226    -2.543186    -8.413836
O     3.255501    -3.077683    -7.614507
H     4.129021    -3.056544    -7.179283
H    -0.627669     8.832373    -2.198882
O    -0.465634     9.706495    -1.775580
H     0.198443     9.544433    -1.085214
H     2.058994    -0.924157     5.226628
O     1.479063    -1.445992     5.810666
H     1.570113    -1.101747     6.708513
H     5.260792    -2.051841    -5.657937
O     5.605544    -2.820302    -6.178014
H     5.323177    -3.608528    -5.662627
H     5.663879    -5.249163     4.722969
O     5.137161    -5.161172     5.546547
H     4.412206    -5.788548     5.456114
H    -3.979752     1.172603     6.984764
O    -3.789887     1.647666     7.829669
H    -4.665370     2.038028     8.085321
H    -1.754235     9.635056    -0.747051
O    -2.618990     9.508732    -0.281776
H    -3.225084     10.139719    -0.673671
H    -5.868705     4.729693    -2.972735
O    -6.775961     4.617000    -3.322530
H    -6.685202     3.914367    -3.999615
H     0.089073    -7.061693    -1.142312
O     0.545658    -7.500883    -0.391726
H    -0.138976    -7.691321     0.252670
H    -7.569445     3.842303    -2.019007
O    -7.839155     3.257337    -1.280303
H    -7.699888     2.347568    -1.618940
H     3.954297    -0.915893     7.013901
O     3.969481     0.048245     7.005405
H     4.786308     0.332518     6.578654
H     2.250381     5.867018    -1.047302
O     3.206578     5.654806    -0.974680
H     3.399935     5.051473    -1.733157
H     6.540140    -5.968242     0.713976
O     6.163827    -6.702238     1.245639
H     5.259415    -6.419694     1.466196
H    -3.856887     4.754800     7.760457
O    -3.288811     4.289158     7.104684
H    -3.488497     3.346763     7.213515
H     5.742711    -7.978977     0.174645
O     5.454551    -8.664486    -0.464455
H     4.630029    -8.333652    -0.864087
H    -0.562193     2.046613     7.692851
O    -1.191183     1.987929     6.953701
H    -2.062881     1.850226     7.344582
H    -6.359169    -0.078585     1.025052
O    -6.674163    -0.158857     0.110107
H    -7.594330    -0.425085     0.121773
H    -5.355697    -3.026554    -0.620367
O    -5.104153    -2.326228     0.007819
H    -5.667237    -1.549509    -0.184372
H     4.386849     5.546281     0.352501
O     4.712206     5.656807     1.259335
H     4.013617     6.166339     1.705339
H    -9.009200    -1.684138    -2.308005
O    -8.465678    -1.485872    -1.518142
H    -8.600974    -2.222301    -0.881865
H    -5.434479     3.510170    -5.560988
O    -5.959314     2.804963    -5.147078
H    -5.298789     2.214106    -4.730375
H     3.242887    -0.905091    -5.633061
O     2.389698    -1.022082    -6.104374
H     2.472926    -1.871330    -6.577212
H     8.174066    -1.395385    -5.975530
O     8.174837    -2.259891    -5.519716
H     7.317452    -2.654213    -5.775344
H     7.696389     0.948114    -6.258211
O     7.505692     0.101105    -6.673523
H     6.524071     0.057530    -6.716365
H    -7.858144    -3.639986     0.882039
O    -8.531926    -3.528888     0.193760
H    -8.434263    -4.288509    -0.407829
H    -2.331167     8.755178     1.283109
O    -2.187099     8.165225     2.036330
H    -1.419334     7.607592     1.817189
H    -4.395112     6.465665     3.474842
O    -4.556963     6.893038     2.617307
H    -3.789452     7.474546     2.482949
H     3.426094     3.501886    -3.384265
O     3.707659     4.427916    -3.205682
H     3.302188     5.007551    -3.879863
H    -6.072378    -1.562821    -3.478283
O    -6.164662    -2.141672    -2.694936
H    -6.949574    -1.829142    -2.191313
H     6.474971     1.010825     4.783357
O     6.079942     1.552832     5.483406
H     6.276732     2.469894     5.193636
H     1.438538     1.585705    -5.840467
O     1.240748     1.009921    -5.066517
H     1.623141     0.150027    -5.346485
H    -2.505842     2.980661     10.471638
O    -2.297245     2.071939     10.199406
H    -2.891582     1.875870     9.463305
H     7.635380    -0.543581     3.134032
O     6.888302     0.036776     3.299986
H     6.189710    -0.559920     3.673607
H    -5.674207    -8.014755    -0.735401
O    -4.944159    -8.088417    -0.084139
H    -4.945734    -7.270954     0.437571
H    -5.116585    -0.081296    -4.744985
O    -5.737202    -0.789146    -4.987873
H    -6.570890    -0.342100    -5.192210
H     1.964775    -0.206666    -7.501005
O     1.770966     0.263654    -8.347241
H     2.351481    -0.144328    -8.995098
H     4.952661    -1.419258    -9.270549
O     4.030601    -1.185812    -9.558837
H     4.015874    -1.302680    -10.508058
H     7.551519    -2.616621     4.249997
O     7.704377    -2.652976     3.291493
H     7.207920    -3.440561     3.015790
H     6.697106    -5.934341     2.728084
O     6.758888    -5.260088     3.430246
H     7.631708    -5.350949     3.853078
H    -1.756366     8.962115     3.490475
O    -1.510536     9.265722     4.389534
H    -2.360581     9.402815     4.841502
H    -7.315453     1.619609    -5.293963
O    -7.896586     0.879187    -5.052634
H    -8.796352     1.283992    -4.982599
H     7.001877    -1.120794    -8.357823
O     6.418786    -1.839411    -8.625653
H     6.181853    -2.287083    -7.795025
H    -1.675145     6.092700    -7.235146
O    -2.017556     5.299800    -6.819285
H    -1.742639     5.322672    -5.845696
H    -0.004422     3.313455     9.026806
O     0.185570     2.392643     9.283239
H    -0.617652     2.133097     9.784333
H     6.786025    -2.817651    -2.660645
O     6.249574    -3.558913    -2.322254
H     6.713945    -4.372465    -2.567260
H    -4.034917    -3.042594    -4.966789
O    -4.183369    -2.929672    -5.932451
H    -4.723584    -2.132110    -5.992264
H     1.971258     2.173967     8.480759
O     2.639806     2.282677     7.794622
H     3.057612     1.409886     7.681863
H    -6.900694    -5.153969    -1.436806
O    -7.816469    -5.417610    -1.688157
H    -7.941739    -5.014143    -2.571967
H    -3.799552     5.283149     5.677141
O    -3.757628     6.051630     5.086816
H    -2.822511     6.339680     5.187478
H    -7.841104     0.141626    -2.012879
O    -7.344859     0.862847    -2.422833
H    -7.566149     0.852989    -3.377743
H     5.865228     0.098020     0.451901
O     5.643637     0.819089     1.073738
H     6.149131     0.619521     1.888428
H    -6.209949     3.353061     7.361218
O    -6.090473     2.834271     8.190693
H    -6.694627     2.076432     8.098478
H     2.262466    -8.084116    -0.827108
O     2.944650    -8.076277    -1.518340
H     2.718912    -8.788405    -2.133376
H    -2.700057    -3.939572    -6.211727
O    -1.952621    -4.511802    -5.974647
H    -1.679047    -4.220797    -5.076450
H    -5.622415     3.800045     5.277799
O    -6.272637     4.200844     5.891087
H    -6.103505     5.143890     5.878505
H    -1.012791    -7.103628    -3.167592
O    -0.539427    -6.437508    -2.635715
H     0.370607    -6.373004    -3.011389
H     4.455622     1.992090     5.159889
O     3.516763     2.239757     5.034277
H     3.126758     2.255303     5.913670
H     4.130629     4.634558     6.330890
O     4.218525     5.364656     5.713672
H     3.654782     5.126664     4.939423
H     2.793468     3.603833     3.945380
O     2.622895     4.544895     3.776185
H     2.509326     4.641849     2.809326
H     9.431340     0.153622    -1.009611
O     8.626196     0.322971    -0.516781
H     8.439837    -0.496247    -0.028261
H    -2.103445     5.337404     10.641868
O    -2.830824     4.713466     10.868518
H    -3.053708     4.891699     11.782411
H     7.982094    -3.056700     0.379869
O     8.407834    -2.213315     0.638211
H     8.335259    -2.207798     1.599977
H     5.402684     3.632968     3.563832
O     6.056909     3.897161     4.232618
H     5.644412     4.616380     4.732596
H    -4.208097     5.052520     9.762739
O    -4.835546     5.207545     9.036670
H    -5.452123     4.462791     9.030295
H    -6.980027    -3.429171    -3.526508
O    -7.601629    -4.037191    -3.978678
H    -7.078815    -4.482418    -4.677687
H     0.029462     6.132075     10.775439
O    -0.831237     6.469352     10.522630
H    -0.707098     6.899206     9.657197
H     2.653562     1.446439    -4.040097
O     3.490638     1.873424    -3.769974
H     3.844676     1.342574    -3.023087
H    -6.988002    -0.170535     7.179689
O    -7.493369     0.611251     7.456857
H    -8.111260     0.798138     6.749015
H    -2.769377    -9.851914    -0.844634
O    -2.699162    -8.910683    -1.003900
H    -3.604167    -8.538368    -0.769086
H    -9.987685     3.144368    -4.956881
O    -10.112669     2.227616    -4.677293
H    -10.333511     2.312509    -3.728857
H    -2.085068    -3.007451     4.604174
O    -2.963301    -3.441780     4.668554
H    -2.956359    -4.059395     3.911977
H    -0.213490    -7.977335     2.486615
O     0.611306    -7.772583     2.940067
H     1.331414    -8.072604     2.357588
H     6.680757    -2.415061     6.437545
O     7.129069    -3.127623     5.977217
H     6.494702    -3.858430     5.934127
H    -5.297356    -1.965633     6.914025
O    -5.967455    -1.463034     6.426137
H    -5.947921    -1.839995     5.516891
H     0.930422     2.963644    -7.187549
O     1.860398     2.649905    -7.212867
H     1.848731     1.890890    -7.829715
H    -3.910640     8.786565     6.652307
O    -3.899970     8.783907     5.695004
H    -4.031354     7.857331     5.426806
H    -1.947846     10.334429    -2.747971
O    -2.848460     10.520540    -3.048232
H    -2.774557     11.147640    -3.767019
H     9.389752    -4.117503     4.105479
O     9.102637    -4.793617     4.726895
H     8.671103    -4.318435     5.447961
H    -0.705807    -5.987991    -5.841856
O    -0.007850    -6.559153    -5.504648
H     0.831753    -6.102407    -5.717014
H     1.893144     8.334897     0.772161
O     1.547972     8.692704    -0.078048
H     2.351610     8.754644    -0.631000
H     3.646267     2.930112    -6.628840
O     4.450927     2.615097    -6.194847
H     4.169329     2.322969    -5.301116
H     3.785075     7.229881    -1.251682
O     3.984278     8.190158    -1.391835
H     4.622781     8.170551    -2.119057
H     4.473825    -0.027366    -7.880178
O     4.848502     0.115239    -7.009181
H     4.669449     1.047990    -6.764058
H     6.075971     1.896140    -0.433375
O     6.649087     2.085352    -1.189734
H     7.468768     1.599641    -0.991387
H     6.670921    -8.469876    -1.562584
O     7.313000    -8.263529    -2.295038
H     7.675023    -9.100322    -2.581422
H    -5.273794    -5.749570    -5.437337
O    -5.885042    -5.073916    -5.755874
H    -5.327578    -4.308983    -5.988869
H     0.712028     7.173976     7.608887
O    -0.191354     7.207673     7.963058
H    -0.742125     7.225159     7.142619
H    -8.858839    -2.772563    -4.153907
O    -9.375446    -1.960822    -3.989830
H    -9.081015    -1.297819    -4.618084
H    -2.403708    -5.968104    -2.155834
O    -3.279047    -5.677444    -2.428924
H    -3.462796    -6.049805    -3.316404
H    -2.960384    -5.875384    -5.424540
O    -3.566855    -6.481996    -4.956305
H    -3.090731    -7.305094    -4.787122
H    -1.302839     3.687472    -7.056834
O    -0.796684     2.908233    -6.741547
H    -1.016875     2.136417    -7.319327
H    -0.121529     0.422751    -8.213668
O    -1.019733     0.659597    -7.938865
H    -1.199668     0.142277    -7.137946
H    -10.349406     4.123638    -2.795265
O    -10.425573     3.346028    -2.226782
H    -9.599040     3.313857    -1.713659
H     4.631888     4.053111     1.754284
O     4.412635     3.136005     2.033488
H     5.122721     2.551520     1.754392
H     6.549350     1.363733    -4.176727
O     6.240313     0.739466    -3.484971
H     6.265744     1.236253    -2.641902
H     9.654554    -2.283184    -0.867608
O     9.938197    -2.070122    -1.765510
H     9.142538    -1.726568    -2.213958
H     9.997320    -3.379720    -3.034453
O     9.730778    -4.030155    -3.711151
H     9.344072    -3.520072    -4.433514
H    -7.712076    -8.520647    -1.711033
O    -6.969553    -7.931174    -1.834657
H    -7.341215    -7.015660    -1.827331
H     6.427294     7.368885    -3.933021
O     5.715799     6.979818    -3.418896
H     6.015870     6.071403    -3.237321
H     0.108761    -8.165954    -5.212319
O     0.125594    -9.149137    -5.080510
H     0.279211    -9.513529    -5.952262
H    -2.340043    -8.653947    -2.727650
O    -2.099553    -8.391968    -3.635934
H    -1.454105    -9.013979    -3.990641
H     2.166477    -10.825745    -3.480127
O     2.126472    -9.870950    -3.455584
H     1.346419    -9.594706    -3.986981
H     6.912380     3.291481    -4.520520
O     6.974883     2.616698    -5.226758
H     6.183569     2.752967    -5.769867
H    -3.605088    -3.695439     7.701763
O    -3.710661    -2.906644     7.171373
H    -3.455572    -3.147243     6.254419
H    -0.587670    -3.352380    -6.725499
O     0.048414    -2.626205    -6.728445
H    -0.429344    -1.846553    -6.389996
H     0.620621     0.461615     8.760477
O     0.627868    -0.252586     8.119299
H    -0.295379    -0.536467     8.026089
H    -5.732314     7.409230    -4.284492
O    -6.235948     6.793713    -4.848171
H    -6.529667     6.063671    -4.259235
H    -4.171020     9.134028    -3.284024
O    -4.714753     8.342698    -3.183400
H    -4.324272     7.860658    -2.436513
H    -9.615697     5.863444    -4.701870
O    -10.155314     5.062384    -4.541078
H    -11.032246     5.268237    -4.866742
H     2.802331     6.502784     6.160869
O     1.842086     6.606304     6.250225
H     1.493477     5.694541     6.148852
H     4.887387     8.515708     0.104606
O     5.194043     8.521991     1.028425
H     5.595634     7.656840     1.171821
H     4.153014    -7.447270    -4.314440
O     3.396860    -7.727853    -4.861581
H     3.108802    -8.566690    -4.486651
H     0.437036     8.661532     4.239817
O     1.112694     8.013523     4.014873
H     1.331178     7.518734     4.830942
H     5.332425     4.153511    -3.144374
O     6.296697     4.126639    -3.060136
H     6.478615     3.538045    -2.312660
H    -2.603226    -1.523681     7.560445
O    -2.089750    -0.733344     7.783779
H    -2.714332    -0.103675     8.154206
H    -8.921796     7.998931    -4.198059
O    -8.857943     7.414023    -4.954512
H    -7.901071     7.243360    -5.083849
H     3.497491    -8.997408     1.113914
O     2.823218    -8.362090     1.360241
H     3.300966    -7.559350     1.642255
H     3.650107     8.157168     1.854592
O     2.855520     7.598466     1.958675
H     2.404560     7.834539     2.782661
N     1.893595     5.896748    -4.689537
H     1.715370     6.687188    -4.170438
H     1.341019     5.203844    -4.278892
