603

H     0.196445     3.041218    -0.678630
O     0.717638     2.370208    -1.169797
H     1.656305     2.495123    -0.893585
H    -0.109291    -1.288203     3.159561
O     0.288455    -0.590576     2.616079
H    -0.185995     0.225348     2.847024
H    -2.406279     2.431572    -0.541350
O    -2.200620     1.962404     0.284563
H    -2.217087     1.014084     0.062240
H    -4.685421     0.582564     2.179269
O    -5.008849    -0.348857     2.189609
H    -4.496338    -0.828905     1.530848
H     0.040787    -0.295118     0.959029
O    -0.153932    -0.058190     0.031424
H     0.191565     0.835881    -0.089866
H    -0.194218    -3.565684     3.784307
O    -0.486679    -2.738674     4.202154
H     0.152657    -2.561405     4.909262
H    -4.897624     2.566202     1.319271
O    -4.262546     2.153673     1.936343
H    -3.417893     2.131856     1.426763
H    -3.246348     3.919045    -2.222373
O    -2.512259     3.319065    -1.988455
H    -2.152311     3.028307    -2.846503
H    -0.161775    -3.792374     0.519557
O     0.181611    -2.973329     0.932084
H    -0.604305    -2.485294     1.244970
H    -2.408746    -1.505643     2.477517
O    -2.216392    -1.967029     1.635297
H    -2.471923    -1.383010     0.903318
H     2.050208    -1.442483    -1.106077
O     2.278994    -1.693561    -0.187657
H     1.487370    -2.117917     0.195619
H    -1.404812     1.848843     1.910565
O    -1.502324     1.453340     2.786781
H    -1.485048     2.166017     3.451256
H     0.181017    -2.695905    -1.555882
O    -0.571423    -2.080518    -1.614943
H    -0.390633    -1.354513    -0.980987
H    -3.461684    -2.897046    -0.380142
O    -2.755194    -3.394619    -0.810950
H    -2.036079    -2.771226    -1.021062
H     2.747036     0.136655     2.945936
O     2.843774    -0.043893     3.908096
H     2.937147     0.849281     4.311224
H    -3.520912     6.406158    -0.559578
O    -3.278577     7.066077    -1.260954
H    -3.133918     7.911650    -0.792330
H     3.882396     0.582735     1.199866
O     2.930660     0.405997     1.313279
H     2.691793    -0.347737     0.736181
H    -5.793501     0.877161    -1.615000
O    -4.882029     1.200157    -1.486418
H    -4.989960     2.030360    -0.976903
H    -1.213816     5.419824     2.201178
O    -1.841827     4.675204     2.084722
H    -1.922659     4.258436     2.947964
H     3.484528     2.761830     0.433069
O     3.238605     2.718052    -0.506629
H     3.568554     1.873194    -0.854237
H     1.458057    -4.696053    -2.230028
O     1.523498    -3.916197    -1.660674
H     2.321634    -3.460104    -2.009643
H    -0.934461    -0.074891    -2.543002
O    -0.298538     0.575219    -2.868297
H    -0.036162     1.157682    -2.132080
H     1.660365    -4.680607    -0.158929
O     1.766661    -5.317188     0.583619
H     1.298049    -6.126490     0.290671
H    -1.250704    -3.254695    -2.868334
O    -1.082172    -3.940223    -3.528242
H    -0.957260    -4.786520    -3.057049
H    -2.796643     3.344008     4.697158
O    -1.815549     3.337625     4.664986
H    -1.526002     2.935652     5.502478
H     0.954031     5.052641     4.072839
O     0.008761     5.288861     4.122043
H    -0.466768     4.488083     4.381070
H    -1.764883    -4.631132    -0.358305
O    -1.001162    -5.180866    -0.089370
H    -1.346405    -5.850244     0.510888
H    -3.907074     5.854996    -2.614188
O    -4.260876     5.021889    -2.943325
H    -4.103140     4.984250    -3.910914
H    -2.394758    -3.591459     1.927965
O    -2.421877    -4.534272     2.179685
H    -1.493328    -4.761840     2.394736
H    -4.719784    -2.954405    -2.897777
O    -3.868655    -3.193091    -3.302281
H    -3.539221    -3.984840    -2.832730
H     0.315306     1.398066     4.618951
O     0.824287     2.156195     4.283900
H     0.875004     2.815893     4.989816
H    -4.685848    -5.145276    -1.560614
O    -5.389119    -4.794164    -0.984939
H    -5.180610    -5.146000    -0.103903
H     2.289698    -6.488859    -4.012795
O     1.951457    -6.156683    -3.161198
H     2.381723    -6.730458    -2.494978
H     0.442537    -3.377967    -3.990557
O     1.247452    -3.015274    -4.413139
H     0.931649    -2.644147    -5.263023
H     1.929625    -1.741891     2.996523
O     2.082819    -2.673323     2.780484
H     1.396472    -2.887022     2.113778
H    -3.033596    -1.791325    -3.207065
O    -2.609072    -0.906305    -3.142957
H    -3.260914    -0.258623    -3.465672
H    -3.191729     5.003989     1.067303
O    -3.971221     5.379243     0.610277
H    -4.385282     5.940664     1.314366
H     0.859992     2.268213     2.594050
O     0.963196     2.261447     1.622953
H     1.687852     1.634670     1.461910
H     0.196053     5.666990    -0.764683
O     0.721006     6.325716    -1.274219
H     0.865553     7.126043    -0.719830
H     0.346854     7.053072     2.581577
O    -0.015075     6.672482     1.764148
H     0.646643     5.998333     1.505871
H    -2.502721     0.248729     3.343217
O    -2.736826    -0.562312     3.847092
H    -1.978600    -0.616605     4.469926
H    -0.925947     0.581285     6.028019
O    -0.649701     0.063980     5.253373
H     0.057140    -0.545584     5.543652
H     0.667317    -4.981699     2.001626
O     0.127601    -5.082580     2.807968
H     0.258548    -6.004353     3.081625
H    -2.166575    -8.104014     0.407226
O    -1.816746    -7.659696     1.212060
H    -2.590125    -7.352697     1.691216
H    -0.365520     6.872741    -2.335887
O    -1.109320     7.294449    -2.837819
H    -1.900845     7.172697    -2.275425
H    -1.116365     4.328203     0.567811
O    -0.741634     4.385862    -0.327789
H    -1.447795     4.145134    -0.960952
H    -4.425190     2.785974     3.497078
O    -4.426200     2.959070     4.461061
H    -4.512615     2.077265     4.872364
H     1.979457    -3.568204     4.263111
O     1.913399    -4.038364     5.117121
H     2.419167    -3.501395     5.748163
H     4.653005    -3.200250     0.863026
O     4.495743    -3.125181    -0.104206
H     3.638456    -2.645393    -0.190288
H    -2.741993    -0.727520    -1.350335
O    -3.073526    -0.455103    -0.478329
H    -3.868323     0.077206    -0.689334
H    -1.628531    -0.751973    -4.627019
O    -1.119695    -0.539920    -5.430735
H    -0.407708     0.054120    -5.145534
H     1.775770    -1.717701    -3.363088
O     1.869806    -0.969164    -2.742418
H     1.094825    -0.389715    -2.876128
H     3.624796    -3.119207     2.571761
O     4.583139    -3.352487     2.501013
H     4.632779    -4.312665     2.630474
H     3.373720    -6.116558     3.151100
O     3.733297    -5.918715     2.251398
H     2.998112    -5.571731     1.706159
H    -3.347240     1.627540    -4.183502
O    -4.194942     1.161154    -3.993446
H    -4.413263     1.310557    -3.037657
H    -5.084356     4.181438     0.052372
O    -5.526990     3.317234    -0.050601
H    -6.456019     3.440626    -0.334446
H     6.712452    -1.201529    -1.339100
O     5.939374    -1.046953    -0.789883
H     5.516299    -1.912514    -0.590574
H     4.566199    -3.181347    -2.447109
O     3.700492    -3.006888    -2.866238
H     3.702747    -3.628208    -3.620229
H     4.394102    -2.286745     5.642215
O     4.049018    -2.747829     6.436855
H     4.377713    -3.655341     6.357329
H    -0.758412     6.365019     5.065028
O    -1.353984     6.944788     5.600296
H    -1.362513     7.820825     5.156855
H     4.681462    -0.147047    -1.449764
O     3.917104     0.397977    -1.716197
H     3.222739    -0.200819    -2.045482
H    -0.734773     4.529817    -4.043334
O    -1.514839     5.075600    -4.254408
H    -1.360590     5.942609    -3.833508
H     0.659071     3.207465    -2.658032
O     0.669205     3.581936    -3.567595
H     0.715256     2.816793    -4.150984
H    -5.383437    -5.023923     1.765724
O    -4.717608    -5.727646     1.520905
H    -3.852477    -5.256901     1.584995
H     7.863066    -1.720533    -4.007179
O     7.604898    -1.404027    -3.108872
H     7.121610    -0.558670    -3.268167
H     3.671386    -5.088368    -5.264417
O     4.434522    -4.716657    -4.783266
H     4.814879    -5.427703    -4.234455
H    -3.812574     0.058714     4.933901
O    -4.416625     0.526749     5.561827
H    -5.076262    -0.130345     5.856037
H     3.421327    -5.945671    -0.491255
O     4.294991    -5.702816    -0.810399
H     4.375278    -4.740746    -0.667634
H     4.987928    -0.354493    -4.143229
O     4.450380    -1.064309    -4.532826
H     4.120630    -1.644944    -3.814219
H    -1.177746     1.580249    -3.936596
O    -1.825137     2.202160    -4.325683
H    -1.463866     2.530601    -5.171662
H     4.842928    -6.335909    -2.284642
O     5.176711    -6.663921    -3.148949
H     5.992102    -7.147993    -2.959104
H     8.705178    -5.123598    -2.882334
O     8.010927    -5.536899    -2.324515
H     8.041509    -6.494660    -2.424008
H     2.337066     4.722990     0.451660
O     1.755650     4.709647     1.221241
H     1.394781     3.790729     1.300966
H    -4.456912    -2.515306     4.155509
O    -5.369219    -2.197677     3.976452
H    -5.235388    -1.403515     3.410224
H    -5.879063    -3.127591     1.236527
O    -6.346973    -3.691309     1.906739
H    -6.151107    -3.218803     2.742477
H     1.666372     3.489925     6.863809
O     1.047064     4.007637     6.327718
H     0.263249     4.164364     6.897088
H     4.963771    -2.169697     3.637466
O     4.986612    -1.449275     4.299246
H     4.176834    -0.890586     4.140264
H     2.336359    -5.563749     4.861985
O     2.714248    -6.449160     4.605043
H     1.966761    -7.027741     4.430289
H     2.232328    -4.529308    -6.769159
O     2.058834    -5.015156    -5.952964
H     1.796328    -4.321426    -5.299312
H     6.403124    -4.119508    -0.473719
O     7.154335    -4.523946    -0.008465
H     7.661004    -4.950794    -0.727180
H    -1.742933     4.527994     7.692500
O    -0.844747     4.623763     8.079908
H    -0.659849     5.582105     8.102052
H    -5.103085     5.714394    -5.614957
O    -4.499030     4.948052    -5.632324
H    -3.739383     5.158052    -6.196830
H     3.268370    -2.549008    -8.418275
O     3.176566    -3.079335    -7.615906
H     4.052339    -3.057833    -7.185057
H    -0.638471     8.836845    -2.294861
O    -0.513230     9.666133    -1.777873
H     0.247101     9.489964    -1.199027
H     2.030043    -0.897353     5.224400
O     1.453270    -1.419663     5.810780
H     1.546486    -1.072936     6.707541
H     5.188654    -2.047574    -5.671539
O     5.532512    -2.816476    -6.191304
H     5.254599    -3.604063    -5.672195
H     5.642536    -5.215602     4.716202
O     5.119811    -5.126427     5.541981
H     4.395048    -5.754856     5.456528
H    -4.004191     1.192287     7.001826
O    -3.812623     1.670993     7.844252
H    -4.687527     2.059628     8.102731
H    -1.829831     9.633320    -0.766831
O    -2.691870     9.511592    -0.294020
H    -3.299547     10.141743    -0.684649
H    -5.942855     4.720441    -2.956756
O    -6.851526     4.603597    -3.301967
H    -6.762396     3.899586    -3.977481
H     0.046164    -7.054508    -1.118158
O     0.509268    -7.492782    -0.372102
H    -0.170147    -7.681647     0.279034
H    -7.637735     3.831744    -1.992764
O    -7.903665     3.247206    -1.252261
H    -7.762961     2.337531    -1.589708
H     3.933929    -0.879887     7.002846
O     3.947339     0.084250     6.991633
H     4.761743     0.369102     6.560749
H     2.264536     5.796311    -1.183037
O     3.198700     5.500384    -1.066353
H     3.374699     4.957271    -1.857622
H     6.503228    -5.943566     0.706001
O     6.130673    -6.677239     1.240405
H     5.226875    -6.395830     1.465617
H    -3.885731     4.776958     7.767156
O    -3.320139     4.310580     7.109980
H    -3.516076     3.367877     7.223291
H     5.708485    -7.957265     0.174718
O     5.419975    -8.644334    -0.462645
H     4.592054    -8.316916    -0.858177
H    -0.585083     2.074956     7.692686
O    -1.217616     2.014366     6.956845
H    -2.086664     1.873636     7.352230
H    -6.404580    -0.076657     1.054284
O    -6.723785    -0.167544     0.141337
H    -7.645645    -0.427127     0.159219
H    -5.404768    -3.022895    -0.597511
O    -5.158234    -2.328434     0.037849
H    -5.717943    -1.547662    -0.151472
H     4.319570     5.573016     0.321554
O     4.652260     5.674947     1.227040
H     3.958735     6.188632     1.676890
H    -9.066988    -1.698357    -2.263537
O    -8.520550    -1.498058    -1.475932
H    -8.653898    -2.231644    -0.837114
H    -5.519551     3.493478    -5.541564
O    -6.040449     2.785626    -5.126338
H    -5.376691     2.198891    -4.709805
H     3.167569    -0.903234    -5.640313
O     2.312241    -1.020627    -6.108078
H     2.395331    -1.871329    -6.578894
H     8.100164    -1.386178    -6.003496
O     8.104021    -2.249117    -5.545045
H     7.246619    -2.646196    -5.796025
H     7.616906     0.955565    -6.290757
O     7.425313     0.107227    -6.702708
H     6.443848     0.061029    -6.740417
H    -7.899193    -3.644324     0.927808
O    -8.575975    -3.538404     0.243055
H    -8.479154    -4.297735    -0.359323
H    -2.394044     8.763036     1.272581
O    -2.247528     8.175641     2.027318
H    -1.479019     7.618872     1.807764
H    -4.444755     6.475886     3.478019
O    -4.611698     6.900254     2.619993
H    -3.845639     7.482789     2.480465
H     3.401793     3.435910    -3.572819
O     3.252201     4.406068    -3.482394
H     2.287810     4.474356    -3.591947
H    -6.135019    -1.576638    -3.444159
O    -6.223672    -2.153506    -2.658556
H    -7.007214    -1.839171    -2.153749
H     6.441539     1.046761     4.756142
O     6.048701     1.589208     5.456926
H     6.240913     2.506271     5.163777
H     1.359728     1.714531    -5.818134
O     1.160600     1.121330    -5.063067
H     1.521887     0.256255    -5.329475
H    -2.519507     3.013217     10.477214
O    -2.310441     2.103962     10.207265
H    -2.906856     1.904358     9.473834
H     7.598020    -0.509950     3.106459
O     6.850178     0.069517     3.271946
H     6.154400    -0.526997     3.651543
H    -5.717755    -8.079403    -0.759847
O    -5.045123    -8.157572    -0.044230
H    -5.015066    -7.285036     0.382258
H    -5.189493    -0.096301    -4.718799
O    -5.809851    -0.806255    -4.956057
H    -6.644975    -0.361013    -5.158938
H     1.883419    -0.212401    -7.504614
O     1.685173     0.258031    -8.350202
H     2.261671    -0.151147    -9.001007
H     4.864136    -1.424227    -9.284556
O     3.940544    -1.192122    -9.569442
H     3.921911    -1.312605    -10.518172
H     7.523307    -2.579466     4.227822
O     7.672522    -2.618676     3.268805
H     7.176078    -3.407990     2.997938
H     6.669603    -5.903939     2.719182
O     6.733243    -5.226795     3.418218
H     7.607593    -5.314982     3.838412
H    -1.811551     8.977029     3.477184
O    -1.564530     9.283297     4.375152
H    -2.413697     9.420037     4.828667
H    -7.393745     1.598564    -5.263558
O    -7.972340     0.857633    -5.017333
H    -8.872464     1.261634    -4.944578
H     6.917380    -1.120599    -8.381547
O     6.332935    -1.839847    -8.644642
H     6.101560    -2.286708    -7.811988
H    -1.657338     6.243599    -7.035430
O    -2.059485     5.420900    -6.760350
H    -1.813093     5.291450    -5.795922
H    -0.024884     3.346850     9.021118
O     0.168556     2.427362     9.279680
H    -0.631989     2.167086     9.784510
H     6.729057    -2.802344    -2.678224
O     6.194682    -3.543509    -2.336852
H     6.660542    -4.356956    -2.579614
H    -4.100854    -3.054942    -4.938937
O    -4.254469    -2.944574    -5.904038
H    -4.797061    -2.148621    -5.963159
H     1.950825     2.209439     8.469897
O     2.616791     2.317754     7.781170
H     3.035242     1.445273     7.668558
H    -6.948382    -5.162344    -1.393480
O    -7.864968    -5.426102    -1.637368
H    -7.995089    -5.026585    -2.522803
H    -3.837486     5.300191     5.682559
O    -3.800756     6.066969     5.089717
H    -2.865694     6.357633     5.184818
H    -7.902228     0.130090    -1.977188
O    -7.407673     0.849830    -2.391270
H    -7.634006     0.838243    -3.345093
H     5.816034     0.119258     0.429972
O     5.596273     0.843682     1.048236
H     6.103657     0.648156     1.862947
H    -6.238167     3.370068     7.380787
O    -6.114807     2.853955     8.211456
H    -6.716900     2.094306     8.124377
H     2.226245    -8.071833    -0.810583
O     2.903740    -8.064049    -1.506762
H     2.676427    -8.779356    -2.117337
H    -2.769742    -3.952585    -6.186379
O    -2.020103    -4.522389    -5.950925
H    -1.743273    -4.229101    -5.054274
H    -5.659632     3.812098     5.294934
O    -6.309592     4.212959     5.908617
H    -6.140413     5.156026     5.894987
H    -1.062974    -7.104390    -3.143564
O    -0.590956    -6.433900    -2.616885
H     0.319449    -6.371092    -2.991776
H     4.421312     2.023847     5.139591
O     3.481248     2.267860     5.016915
H     3.094942     2.286646     5.897901
H     4.095190     4.668963     6.304281
O     4.180407     5.397272     5.684593
H     3.613243     5.157046     4.913249
H     2.750761     3.629081     3.926356
O     2.577765     4.569533     3.757203
H     2.460566     4.665730     2.790335
H     9.375564     0.181289    -1.046113
O     8.569175     0.349202    -0.554868
H     8.388703    -0.467444    -0.059723
H    -2.121215     5.371044     10.639437
O    -2.846691     4.746563     10.870954
H    -3.065363     4.926489     11.785514
H     7.938534    -3.029068     0.357841
O     8.362979    -2.183573     0.611571
H     8.294904    -2.175897     1.573741
H     5.357753     3.664325     3.533543
O     6.014196     3.929415     4.199673
H     5.603140     4.649816     4.699365
H    -4.228714     5.079773     9.770076
O    -4.860260     5.231264     9.046769
H    -5.474594     4.484707     9.045142
H    -7.039613    -3.443073    -3.485312
O    -7.661254    -4.056265    -3.930445
H    -7.140910    -4.501436    -4.631598
H     0.010266     6.170038     10.762039
O    -0.852158     6.505208     10.512299
H    -0.732640     6.932553     9.644895
H     2.582760     1.487213    -4.097043
O     3.462114     1.837054    -3.858027
H     3.778835     1.322761    -3.085356
H    -7.007757    -0.159815     7.212883
O    -7.514092     0.620784     7.490315
H    -8.134846     0.806778     6.784718
H    -2.805527    -9.850444    -0.799258
O    -2.740163    -8.909270    -0.960604
H    -3.638903    -8.537136    -0.723434
H    -10.066887     3.119319    -4.920223
O    -10.188415     2.203272    -4.636681
H    -10.405548     2.291653    -3.687601
H    -2.109609    -3.084088     4.588130
O    -3.006624    -3.350166     4.891073
H    -3.163287    -4.246422     4.539308
H    -0.235000    -7.959712     2.519814
O     0.594662    -7.753326     2.964228
H     1.308082    -8.054649     2.375157
H     6.661493    -2.374624     6.418794
O     7.109172    -3.087389     5.958110
H     6.475976    -3.819544     5.920163
H    -5.348327    -1.932578     6.982426
O    -6.022851    -1.446814     6.482149
H    -5.969645    -1.796929     5.568593
H     0.842076     3.024108    -7.114183
O     1.758376     2.689390    -7.167905
H     1.742571     1.940035    -7.791504
H    -3.951809     8.805083     6.648777
O    -3.948978     8.800214     5.691412
H    -4.076946     7.872267     5.426253
H    -2.031745     10.329296    -2.761429
O    -2.931990     10.513831    -3.065712
H    -2.856070     11.145665    -3.780059
H     9.363936    -4.076889     4.080417
O     9.081037    -4.752359     4.704440
H     8.651079    -4.276652     5.426134
H    -0.769604    -5.995414    -5.820226
O    -0.069607    -6.564709    -5.484352
H     0.768604    -6.107319    -5.700453
H     1.838114     8.282901     0.653060
O     1.537846     8.603783    -0.225962
H     2.353706     8.636736    -0.754959
H     3.502802     2.911078    -6.656317
O     4.328416     2.618415    -6.244827
H     4.080406     2.348087    -5.335626
H     3.744760     7.119454    -1.234445
O     3.954874     8.053728    -1.450226
H     4.325640     7.993436    -2.342627
H     4.389294    -0.033121    -7.896676
O     4.765435     0.113805    -7.026976
H     4.587291     1.047103    -6.786059
H     6.018653     1.919359    -0.462029
O     6.586139     2.108331    -1.223315
H     7.408246     1.625578    -1.026534
H     6.630401    -8.450068    -1.565549
O     7.268949    -8.244421    -2.301564
H     7.632686    -9.081188    -2.585813
H    -5.335920    -5.766392    -5.396497
O    -5.950701    -5.092326    -5.711736
H    -5.396012    -4.327357    -5.951263
H     0.676965     7.204490     7.590358
O    -0.225129     7.237574     7.948045
H    -0.779008     7.251848     7.129490
H    -8.922567    -2.792853    -4.106524
O    -9.439359    -1.981846    -3.940385
H    -9.150723    -1.319320    -4.571876
H    -2.453332    -5.967308    -2.124382
O    -3.332038    -5.682550    -2.394410
H    -3.515702    -6.056498    -3.281406
H    -3.022594    -5.887607    -5.392156
O    -3.626191    -6.493154    -4.918866
H    -3.148146    -7.315315    -4.749831
H    -1.382369     3.728234    -6.988733
O    -0.845966     2.970852    -6.714810
H    -1.085020     2.185269    -7.263133
H    -0.207465     0.410809    -8.210909
O    -1.103192     0.650311    -7.929975
H    -1.281672     0.129807    -7.130744
H    -10.421860     4.104334    -2.758604
O    -10.493213     3.327223    -2.188785
H    -9.664830     3.299382    -1.678293
H     4.573362     4.079036     1.725432
O     4.360115     3.159803     2.005583
H     5.074051     2.579842     1.727695
H     6.478728     1.373206    -4.203862
O     6.171543     0.752207    -3.509018
H     6.202968     1.249517    -2.666283
H     9.604076    -2.256101    -0.898257
O     9.883424    -2.045085    -1.798032
H     9.085262    -1.704273    -2.243826
H     9.939978    -3.357888    -3.063866
O     9.671874    -4.010417    -3.737921
H     9.281371    -3.503018    -4.460048
H    -7.751466    -8.534219    -1.655076
O    -7.010527    -7.940437    -1.765878
H    -7.387630    -7.027775    -1.771941
H     4.172633     6.067003    -3.821982
O     4.836475     6.765780    -3.737977
H     5.670476     6.308750    -3.597299
H     0.051882    -8.170765    -5.187193
O     0.069685    -9.153444    -5.052678
H     0.222186    -9.520297    -5.923602
H    -2.383647    -8.657315    -2.690235
O    -2.151365    -8.397917    -3.601096
H    -1.504276    -9.017542    -3.957340
H     2.122639    -10.821394    -3.455647
O     2.081318    -9.866545    -3.435675
H     1.297353    -9.593896    -3.962766
H     6.837445     3.303314    -4.563377
O     6.894255     2.623255    -5.262545
H     6.102225     2.758069    -5.804925
H    -3.416751    -3.511520     7.994566
O    -3.718991    -2.848578     7.370376
H    -3.369017    -3.118148     6.480802
H    -0.660378    -3.363354    -6.710402
O    -0.027451    -2.634362    -6.719135
H    -0.506216    -1.856034    -6.379847
H     0.605071     0.495225     8.759775
O     0.611420    -0.220691     8.120570
H    -0.312053    -0.506348     8.031598
H    -5.815802     7.396304    -4.275511
O    -6.320521     6.778073    -4.835700
H    -6.611546     6.050097    -4.242992
H    -4.255307     9.127247    -3.288985
O    -4.794533     8.333639    -3.181512
H    -4.389376     7.854491    -2.440535
H    -9.699444     5.840351    -4.673041
O    -10.236531     5.038270    -4.508643
H    -11.115592     5.242277    -4.829708
H     2.763008     6.534096     6.135208
O     1.803131     6.635080     6.230788
H     1.456022     5.722694     6.130632
H     4.818300     8.541200     0.077518
O     5.134128     8.543375     0.998977
H     5.536813     7.677576     1.133198
H     4.098470    -7.440922    -4.308542
O     3.340504    -7.724273    -4.851875
H     3.055960    -8.562806    -4.473496
H     0.384321     8.683466     4.219219
O     1.059819     8.035554     3.993926
H     1.282731     7.543690     4.810246
H     5.237901     4.174743    -3.151884
O     6.199119     4.140952    -3.097285
H     6.404168     3.560528    -2.347538
H    -2.615853    -1.497134     7.583221
O    -2.102798    -0.702500     7.798255
H    -2.728458    -0.076214     8.171714
H    -9.007639     7.979096    -4.178193
O    -8.945603     7.391574    -4.932797
H    -7.988891     7.223632    -5.066010
H     3.472870    -8.977712     1.126988
O     2.796843    -8.342814     1.369102
H     3.271761    -7.538727     1.651883
H     3.593955     8.175883     1.821498
O     2.800659     7.616294     1.933482
H     2.354090     7.855671     2.758380
N    -4.187615    -5.937106     4.377722
H    -5.026273    -5.903710     4.847275
H    -4.435765    -5.996429     3.436539
