603

H     0.204226     3.012099    -0.691795
O     0.726602     2.342193    -1.183446
H     1.665767     2.471294    -0.909451
H    -0.072596    -1.311479     3.154244
O     0.318114    -0.613665     2.605861
H    -0.157979     0.201160     2.837547
H    -2.395470     2.393291    -0.546473
O    -2.184734     1.926130     0.279233
H    -2.199854     0.977414     0.058447
H    -4.659678     0.540012     2.179130
O    -4.977452    -0.393142     2.194871
H    -4.471619    -0.873480     1.531211
H     0.066098    -0.322036     0.950092
O    -0.132160    -0.088310     0.022464
H     0.209004     0.807363    -0.100594
H    -0.151141    -3.579618     3.789324
O    -0.430264    -2.747987     4.206649
H     0.215971    -2.574747     4.907753
H    -4.882791     2.520648     1.319715
O    -4.243690     2.112704     1.935861
H    -3.400622     2.093536     1.423821
H    -3.244886     3.874677    -2.228653
O    -2.508318     3.276559    -1.996933
H    -2.149160     2.987395    -2.855426
H    -0.123174    -3.819298     0.515022
O     0.216066    -2.999726     0.929239
H    -0.570886    -2.512831     1.241045
H    -2.374654    -1.545343     2.474160
O    -2.187400    -2.014507     1.634444
H    -2.444462    -1.428891     0.903441
H     2.077220    -1.460591    -1.113493
O     2.307393    -1.714069    -0.195857
H     1.517476    -2.140721     0.187192
H    -1.386115     1.816614     1.904189
O    -1.480128     1.421394     2.780996
H    -1.464343     2.135465     3.444160
H     0.210918    -2.727269    -1.564734
O    -0.543077    -2.113124    -1.623389
H    -0.364623    -1.387115    -0.988399
H    -3.433805    -2.941918    -0.381953
O    -2.718068    -3.434649    -0.804646
H    -2.006466    -2.805559    -1.022238
H     2.776044     0.122734     2.930715
O     2.874232    -0.056844     3.893163
H     2.966425     0.837278     4.294867
H    -3.525851     6.363375    -0.566584
O    -3.287734     7.023048    -1.269583
H    -3.145224     7.869979    -0.802670
H     3.904906     0.571680     1.181654
O     2.954251     0.390574     1.298783
H     2.717307    -0.364491     0.722726
H    -5.779126     0.822615    -1.607801
O    -4.868424     1.150287    -1.484419
H    -4.978620     1.980781    -0.975749
H    -1.207811     5.389506     2.189022
O    -1.832936     4.641945     2.075124
H    -1.910443     4.226437     2.939218
H     3.496295     2.748128     0.412868
O     3.245831     2.701398    -0.525420
H     3.581373     1.858976    -0.873953
H     1.487031    -4.715645    -2.240837
O     1.557073    -3.942075    -1.663422
H     2.353048    -3.484840    -2.016022
H    -0.918981    -0.106250    -2.543100
O    -0.284302     0.541352    -2.875691
H    -0.021170     1.129596    -2.143666
H     1.701017    -4.703025    -0.166070
O     1.806453    -5.336824     0.580094
H     1.344155    -6.149154     0.286432
H    -1.216851    -3.287450    -2.876715
O    -1.057433    -3.964648    -3.548257
H    -0.913556    -4.811012    -3.081054
H    -2.776699     3.310291     4.691545
O    -1.795529     3.306970     4.657055
H    -1.502466     2.908280     5.494715
H     0.965975     5.033066     4.055745
O     0.019860     5.265361     4.107402
H    -0.451805     4.463057     4.368466
H    -1.729916    -4.667972    -0.357728
O    -0.964990    -5.207699    -0.070827
H    -1.311982    -5.891889     0.510903
H    -3.915269     5.808103    -2.619105
O    -4.265468     4.972874    -2.946815
H    -4.110673     4.935768    -3.914896
H    -2.428715    -3.698010     1.948095
O    -2.447341    -4.601335     2.325826
H    -1.507502    -4.838889     2.467658
H    -4.695451    -3.004645    -2.888789
O    -3.844162    -3.240016    -3.296285
H    -3.511440    -4.030214    -2.825769
H     0.342846     1.377222     4.608211
O     0.847994     2.136337     4.271042
H     0.898248     2.797510     4.975763
H    -4.653650    -5.190980    -1.553095
O    -5.355862    -4.835087    -0.981475
H    -5.143011    -5.185762    -0.095600
H     2.326444    -6.513300    -4.019021
O     1.987743    -6.182189    -3.167163
H     2.423615    -6.751784    -2.501276
H     0.406372    -3.344922    -4.053607
O     1.311879    -3.087158    -4.327524
H     1.205476    -2.459648    -5.059466
H     1.967149    -1.758871     2.985545
O     2.121033    -2.690789     2.771757
H     1.435393    -2.906165     2.105297
H    -3.018593    -1.837215    -3.201989
O    -2.589509    -0.953071    -3.146536
H    -3.239821    -0.304629    -3.471901
H    -3.186979     4.964413     1.061163
O    -3.968998     5.335909     0.605483
H    -4.383666     5.896662     1.309792
H     0.879330     2.246692     2.580405
O     0.979318     2.237864     1.609129
H     1.707170     1.614959     1.447261
H     0.193703     5.638771    -0.779977
O     0.714195     6.298631    -1.292260
H     0.857866     7.100379    -0.739554
H     0.347218     7.029301     2.563701
O    -0.015489     6.645678     1.748018
H     0.648711     5.974434     1.488591
H    -2.477115     0.211700     3.338736
O    -2.698810    -0.600858     3.846091
H    -1.938238    -0.637987     4.468067
H    -0.890497     0.559315     6.021296
O    -0.617117     0.036889     5.248621
H     0.096765    -0.565385     5.537207
H     0.711457    -5.003585     1.995310
O     0.168439    -5.110243     2.799782
H     0.313758    -6.029614     3.075749
H    -2.118790    -8.101911     0.474495
O    -1.795842    -7.611252     1.257657
H    -2.581582    -7.298686     1.713721
H    -0.376748     6.839939    -2.352017
O    -1.123704     7.257388    -2.852850
H    -1.913087     7.133996    -2.287858
H    -1.110218     4.296001     0.557104
O    -0.737980     4.353094    -0.339601
H    -1.445041     4.110031    -0.970529
H    -4.406043     2.744836     3.496436
O    -4.404415     2.918580     4.460343
H    -4.487584     2.037005     4.872620
H     2.026450    -3.584111     4.254235
O     1.962316    -4.053310     5.109097
H     2.470428    -3.515005     5.737581
H     4.690252    -3.209326     0.846858
O     4.528872    -3.137322    -0.119643
H     3.670242    -2.659933    -0.203810
H    -2.720969    -0.768672    -1.350810
O    -3.048498    -0.495146    -0.478021
H    -3.848607     0.030716    -0.686395
H    -1.533750    -0.852654    -4.508525
O    -1.008984    -0.673040    -5.313949
H    -0.331771    -0.033730    -5.026335
H     1.806454    -1.753518    -3.336356
O     1.893574    -0.983803    -2.741649
H     1.111496    -0.415560    -2.881734
H     3.665117    -3.130799     2.558476
O     4.624054    -3.359991     2.486239
H     4.679040    -4.319668     2.616082
H     3.427433    -6.127653     3.141426
O     3.782543    -5.930479     2.240255
H     3.045152    -5.585915     1.696562
H    -3.343540     1.581115    -4.183844
O    -4.186650     1.108574    -3.991528
H    -4.405386     1.258702    -3.035462
H    -5.079089     4.133269     0.051587
O    -5.517799     3.266945    -0.050007
H    -6.448576     3.385803    -0.330467
H     6.734982    -1.204338    -1.364948
O     5.964440    -1.053532    -0.810837
H     5.545396    -1.920550    -0.611053
H     4.595294    -3.196057    -2.461646
O     3.727086    -3.025984    -2.877500
H     3.729820    -3.648259    -3.631320
H     4.437563    -2.291639     5.626286
O     4.094385    -2.754618     6.420882
H     4.429891    -3.659746     6.342386
H    -0.749168     6.340036     5.050761
O    -1.345718     6.917847     5.586934
H    -1.358933     7.793392     5.142452
H     4.704022    -0.157297    -1.467500
O     3.936662     0.385443    -1.729690
H     3.243716    -0.215395    -2.057496
H    -0.740259     4.494172    -4.055200
O    -1.524059     5.035135    -4.264574
H    -1.372678     5.903759    -3.845640
H     0.662178     3.177952    -2.672141
O     0.666277     3.550509    -3.582511
H     0.718342     2.785825    -4.165541
H    -5.382679    -5.201582     1.812075
O    -4.686470    -5.797258     1.457520
H    -3.845527    -5.381359     1.727146
H     7.880452    -1.723577    -4.033861
O     7.622894    -1.407369    -3.134185
H     7.137246    -0.563558    -3.294615
H     3.691197    -5.111403    -5.279308
O     4.450374    -4.735731    -4.796517
H     4.839925    -5.444631    -4.251794
H    -3.781050     0.020595     4.933615
O    -4.381550     0.487146     5.564540
H    -5.041703    -0.169699     5.859278
H     3.464041    -5.961365    -0.502210
O     4.336830    -5.716063    -0.821090
H     4.413992    -4.753284    -0.680890
H     5.000429    -0.365894    -4.166331
O     4.457360    -1.077487    -4.544927
H     4.147870    -1.662763    -3.821685
H    -1.166965     1.538986    -3.947961
O    -1.820774     2.152373    -4.338823
H    -1.459980     2.491074    -5.181356
H     4.883990    -6.348047    -2.297764
O     5.215449    -6.677044    -3.162350
H     6.034132    -7.156393    -2.974493
H     8.738997    -5.120005    -2.906499
O     8.048431    -5.536465    -2.345859
H     8.083195    -6.493947    -2.445575
H     2.341407     4.704755     0.431760
O     1.761857     4.689516     1.202850
H     1.404774     3.769493     1.283932
H    -4.413209    -2.634120     4.239990
O    -5.307244    -2.295400     4.036287
H    -5.170392    -1.515953     3.458531
H    -5.844888    -3.205016     1.328968
O    -6.307962    -3.759534     1.999066
H    -6.118879    -3.321391     2.848187
H     1.691343     3.476650     6.847193
O     1.068129     3.990187     6.311704
H     0.285589     4.145754     6.883205
H     5.003088    -2.174166     3.620051
O     5.023590    -1.453709     4.281819
H     4.212071    -0.897691     4.123095
H     2.391879    -5.576315     4.855358
O     2.771440    -6.461245     4.598375
H     2.026215    -7.043207     4.426705
H     2.262569    -4.671817    -6.777673
O     2.107049    -5.106891    -5.929385
H     1.809178    -4.380740    -5.328292
H     6.440449    -4.123036    -0.494665
O     7.192785    -4.525507    -0.029420
H     7.700249    -4.950498    -0.748864
H    -1.719913     4.502314     7.683212
O    -0.820936     4.601522     8.067975
H    -0.639640     5.560716     8.088812
H    -5.118039     5.659114    -5.616777
O    -4.510807     4.895191    -5.635150
H    -3.753483     5.108071    -6.201734
H     3.369689    -2.663976    -8.481834
O     3.265302    -3.150430    -7.642979
H     4.160434    -3.135947    -7.249397
H    -0.656797     8.803089    -2.312707
O    -0.533971     9.633132    -1.796557
H     0.228816     9.460937    -1.219744
H     2.069235    -0.910682     5.211808
O     1.495988    -1.433958     5.801145
H     1.590883    -1.085967     6.697211
H     5.203165    -2.060468    -5.695669
O     5.553589    -2.831558    -6.205203
H     5.272156    -3.617914    -5.688660
H     5.696847    -5.216204     4.700256
O     5.174739    -5.128058     5.526759
H     4.453333    -5.760491     5.443796
H    -3.970279     1.156771     7.002063
O    -3.777780     1.635591     7.844022
H    -4.653651     2.022452     8.103791
H    -1.847862     9.596576    -0.782384
O    -2.708276     9.471888    -0.307339
H    -3.319238     10.099570    -0.696835
H    -5.947033     4.665050    -2.955540
O    -6.855996     4.544628    -3.298549
H    -6.766413     3.840045    -3.973213
H     0.091708    -7.082518    -1.121260
O     0.555905    -7.518217    -0.373995
H    -0.121933    -7.709977     0.277192
H    -7.636417     3.770643    -1.986170
O    -7.897628     3.186220    -1.244049
H    -7.754759     2.276398    -1.580332
H     3.977081    -0.884639     6.985861
O     3.985713     0.079477     6.973232
H     4.797900     0.367745     6.540277
H     2.260780     5.775282    -1.204374
O     3.195872     5.482567    -1.088461
H     3.373038     4.940141    -1.880118
H     6.550587    -5.945495     0.688024
O     6.181951    -6.679722     1.224826
H     5.277537    -6.401587     1.450587
H    -3.863392     4.742887     7.762763
O    -3.297303     4.277535     7.105075
H    -3.490669     3.334564     7.219338
H     5.761415    -7.963384     0.162414
O     5.472338    -8.653322    -0.471518
H     4.644017    -8.328054    -0.867621
H    -0.552980     2.054208     7.683726
O    -1.186658     1.986935     6.949241
H    -2.054914     1.847040     7.346874
H    -6.380687    -0.131051     1.062692
O    -6.702082    -0.218689     0.150484
H    -7.621078    -0.488344     0.171141
H    -5.372450    -3.080421    -0.576670
O    -5.118965    -2.375658     0.045587
H    -5.689569    -1.603515    -0.143430
H     4.320869     5.561728     0.295731
O     4.654414     5.665700     1.200692
H     3.960099     6.178026     1.650848
H    -9.044835    -1.766328    -2.244766
O    -8.495096    -1.562839    -1.460645
H    -8.623078    -2.296377    -0.819425
H    -5.525001     3.437563    -5.539701
O    -6.041897     2.727344    -5.123378
H    -5.375461     2.143989    -4.707131
H     3.214347    -0.974408    -5.570336
O     2.370311    -1.153566    -6.049961
H     2.603594    -1.896040    -6.655437
H     8.112275    -1.390362    -6.030226
O     8.121333    -2.250778    -5.566784
H     7.265936    -2.652714    -5.818189
H     7.610595     0.950276    -6.325632
O     7.421899     0.097505    -6.729200
H     6.439827     0.048048    -6.773142
H    -7.860714    -3.702028     0.945538
O    -8.538939    -3.597454     0.260565
H    -8.441757    -4.359844    -0.337438
H    -2.403608     8.726786     1.259503
O    -2.252883     8.140845     2.014574
H    -1.482679     7.586973     1.793757
H    -4.439870     6.434391     3.472812
O    -4.610418     6.856884     2.614608
H    -3.847105     7.442412     2.472532
H     3.401774     3.417523    -3.594094
O     3.247399     4.386914    -3.502732
H     2.283077     4.451659    -3.612141
H    -6.117889    -1.630863    -3.435566
O    -6.199648    -2.208220    -2.650341
H    -6.983168    -1.899701    -2.141278
H     6.470818     1.049257     4.730843
O     6.076981     1.590700     5.431885
H     6.265233     2.508228     5.137415
H     1.363285     1.686033    -5.837200
O     1.177097     1.086086    -5.082842
H     1.554134     0.231311    -5.353149
H    -2.483442     2.987407     10.471901
O    -2.271746     2.078689     10.201903
H    -2.869757     1.876590     9.470467
H     7.629480    -0.504510     3.079438
O     6.879593     0.071635     3.247314
H     6.187613    -0.527428     3.628987
H    -5.661335    -8.070673    -0.670612
O    -4.925867    -8.136934    -0.024713
H    -4.929377    -7.318019     0.494718
H    -5.179942    -0.149747    -4.713522
O    -5.795544    -0.862590    -4.954194
H    -6.634558    -0.421764    -5.151026
H     1.837814    -0.201250    -7.475395
O     1.370729     0.213590    -8.231174
H     1.349879    -0.485286    -8.905472
H     5.003376    -1.454684    -9.324390
O     4.059675    -1.197342    -9.482823
H     3.975418    -1.119175    -10.436250
H     7.565447    -2.573951     4.204238
O     7.711627    -2.613320     3.244814
H     7.218361    -3.405183     2.975840
H     6.720907    -5.903073     2.701100
O     6.782709    -5.225714     3.400201
H     7.658974    -5.309060     3.817621
H    -1.816416     8.945755     3.462466
O    -1.568358     9.253722     4.359564
H    -2.416925     9.388149     4.814881
H    -7.391734     1.535059    -5.255159
O    -7.966212     0.791521    -5.007479
H    -8.867916     1.191709    -4.932097
H     6.939561    -1.133972    -8.393202
O     6.389291    -1.879339    -8.655783
H     6.132517    -2.303989    -7.820223
H    -1.677352     6.199211    -7.047957
O    -2.076328     5.376072    -6.769605
H    -1.826452     5.249373    -5.805825
H     0.006165     3.329122     9.008980
O     0.202890     2.410205     9.267334
H    -0.595251     2.148251     9.775200
H     6.754422    -2.806877    -2.700769
O     6.224478    -3.549894    -2.355384
H     6.692386    -4.361487    -2.600398
H    -4.083031    -3.104708    -4.930352
O    -4.234011    -2.994348    -5.896411
H    -4.783872    -2.203025    -5.954929
H     1.985012     2.199135     8.454432
O     2.648326     2.308821     7.763425
H     3.070485     1.438132     7.651157
H    -6.909617    -5.220042    -1.374161
O    -7.825412    -5.490327    -1.618118
H    -7.960056    -5.091015    -2.502185
H    -3.822690     5.263693     5.677339
O    -3.790103     6.029670     5.083336
H    -2.856043     6.324364     5.175985
H    -7.885597     0.067842    -1.964517
O    -7.395331     0.789095    -2.381566
H    -7.625074     0.775037    -3.334336
H     5.838667     0.114434     0.407098
O     5.616247     0.837642     1.025854
H     6.127481     0.645767     1.838894
H    -6.210643     3.325997     7.384718
O    -6.082485     2.810828     8.215235
H    -6.683036     2.049382     8.130225
H     2.276304    -8.093492    -0.814735
O     2.952273    -8.083137    -1.511855
H     2.727220    -8.799641    -2.121972
H    -2.835264    -4.013083    -6.088906
O    -2.046629    -4.551596    -5.896668
H    -1.771414    -4.276435    -4.990503
H    -5.639860     3.768295     5.296008
O    -6.288813     4.167296     5.911766
H    -6.124590     5.111182     5.895241
H    -1.019969    -7.138520    -3.140890
O    -0.550849    -6.461455    -2.619544
H     0.360096    -6.399008    -2.994452
H     4.447868     2.019128     5.117466
O     3.506136     2.258207     4.997110
H     3.122570     2.277922     5.879236
H     4.114358     4.664328     6.280015
O     4.194611     5.392374     5.659388
H     3.626765     5.148947     4.889600
H     2.768442     3.616180     3.906360
O     2.590459     4.555597     3.736939
H     2.471011     4.650593     2.770175
H     9.392630     0.188599    -1.079635
O     8.588423     0.354135    -0.583906
H     8.412260    -0.463536    -0.089062
H    -2.094208     5.346939     10.630087
O    -2.816313     4.719485     10.864166
H    -3.034194     4.900362     11.778746
H     7.972812    -3.026582     0.333186
O     8.394062    -2.179117     0.585250
H     8.328874    -2.170641     1.547527
H     5.374163     3.661352     3.507006
O     6.030444     3.928878     4.172337
H     5.618477     4.649365     4.671070
H    -4.202689     5.046563     9.766306
O    -4.836140     5.194688     9.043999
H    -5.448161     4.446203     9.044948
H    -7.013557    -3.503946    -3.470032
O    -7.634457    -4.117007    -3.916283
H    -7.114423    -4.562569    -4.616569
H     0.034544     6.155235     10.746245
O    -0.830108     6.485796     10.498093
H    -0.714610     6.913038     9.630098
H     2.590783     1.464462    -4.110747
O     3.467809     1.819105    -3.872735
H     3.790479     1.306082    -3.101976
H    -6.969137    -0.203340     7.222226
O    -7.477341     0.576407     7.499724
H    -8.100831     0.757286     6.795249
H    -2.745293    -9.890443    -0.793573
O    -2.682882    -8.949515    -0.957924
H    -3.588306    -8.582211    -0.717130
H    -10.069738     3.045693    -4.906931
O    -10.186204     2.129303    -4.622383
H    -10.401965     2.217448    -3.672953
H    -2.066025    -3.021126     4.624938
O    -2.941304    -3.460364     4.696470
H    -2.935595    -4.081526     3.943020
H    -0.178852    -7.988600     2.513855
O     0.647551    -7.776192     2.960687
H     1.365866    -8.074573     2.375100
H     6.708571    -2.368812     6.396706
O     7.157486    -3.080785     5.936060
H     6.527152    -3.815440     5.900674
H    -5.269340    -1.989545     6.952407
O    -5.945764    -1.493239     6.466794
H    -5.930207    -1.873911     5.559205
H     0.831530     2.996051    -7.126947
O     1.749172     2.663972    -7.179686
H     1.733554     1.925238    -7.810315
H    -3.948383     8.769355     6.639560
O    -3.947398     8.763233     5.682206
H    -4.072808     7.834583     5.418436
H    -2.057317     10.289472    -2.777413
O    -2.959095     10.469835    -3.079622
H    -2.887623     11.101488    -3.794594
H     9.411693    -4.064947     4.053208
O     9.131849    -4.740256     4.678806
H     8.703212    -4.264590     5.401281
H    -0.739758    -6.036971    -5.821159
O    -0.034073    -6.597823    -5.484788
H     0.799767    -6.135148    -5.708375
H     1.829174     8.262470     0.629744
O     1.525264     8.580648    -0.248987
H     2.339718     8.616318    -0.780109
H     3.500484     2.893117    -6.677122
O     4.327164     2.606943    -6.264835
H     4.081766     2.329752    -5.357973
H     3.735762     7.103982    -1.260658
O     3.941008     8.038883    -1.478105
H     4.310478     7.978703    -2.371152
H     4.372309    -0.092370    -7.912044
O     4.756328     0.083097    -7.047036
H     4.576479     1.018496    -6.827887
H     6.032018     1.913990    -0.486932
O     6.596650     2.104853    -1.249674
H     7.421186     1.625211    -1.055528
H     6.680605    -8.455849    -1.579483
O     7.315568    -8.248047    -2.317472
H     7.682311    -9.083214    -2.602591
H    -5.306264    -5.822766    -5.383238
O    -5.922370    -5.151657    -5.701965
H    -5.371629    -4.384218    -5.940644
H     0.689065     7.188008     7.571709
O    -0.212289     7.217193     7.931601
H    -0.768227     7.228984     7.114390
H    -8.901095    -2.860247    -4.088112
O    -9.420714    -2.050743    -3.923402
H    -9.135108    -1.388404    -4.556380
H    -2.410140    -6.007527    -2.122605
O    -3.289394    -5.722958    -2.390228
H    -3.479308    -6.104259    -3.271962
H    -2.990903    -5.940006    -5.388052
O    -3.591383    -6.544484    -4.911943
H    -3.110502    -7.364101    -4.737550
H    -1.395315     3.687398    -6.998570
O    -0.855898     2.930714    -6.729643
H    -1.124718     2.133931    -7.251027
H    -0.416225     0.408879    -8.001433
O    -1.361866     0.614873    -7.834920
H    -1.544280     0.162344    -6.996276
H    -10.423009     4.031928    -2.745583
O    -10.489931     3.254850    -2.175219
H    -9.660716     3.230708    -1.665984
H     4.583154     4.070668     1.700666
O     4.374508     3.150864     1.982799
H     5.089969     2.573577     1.703197
H     6.483702     1.363323    -4.232231
O     6.180858     0.743408    -3.533891
H     6.213418     1.243445    -2.693174
H     9.631760    -2.247525    -0.928835
O     9.908187    -2.036045    -1.829299
H     9.107462    -1.700048    -2.274418
H     9.966724    -3.350918    -3.094538
O     9.698316    -4.006169    -3.765683
H     9.304457    -3.501642    -4.488250
H    -7.701243    -8.593336    -1.629993
O    -6.963961    -7.999162    -1.762378
H    -7.341849    -7.086284    -1.754532
H     4.161468     6.050108    -3.848943
O     4.822212     6.751776    -3.764927
H     5.658628     6.297866    -3.628340
H     0.094440    -8.205343    -5.186017
O     0.114520    -9.187498    -5.050720
H     0.267813    -9.555088    -5.921208
H    -2.337055    -8.697089    -2.683877
O    -2.104607    -8.436728    -3.594864
H    -1.458132    -9.056477    -3.951782
H     2.178855    -10.845691    -3.457201
O     2.131504    -9.891160    -3.435518
H     1.345976    -9.622538    -3.962235
H     6.833787     3.297149    -4.594263
O     6.892477     2.614305    -5.290042
H     6.099250     2.742538    -5.832695
H    -3.560994    -3.705864     7.735794
O    -3.675913    -2.920372     7.202453
H    -3.424799    -3.163020     6.285074
H    -0.761527    -3.463163    -6.751373
O    -0.128983    -2.748002    -6.938947
H    -0.493077    -1.991828    -6.437383
H     0.646819     0.480110     8.748877
O     0.653597    -0.237270     8.111194
H    -0.268806    -0.526050     8.025220
H    -5.833406     7.340090    -4.278467
O    -6.336831     6.718859    -4.836520
H    -6.624188     5.991046    -4.241838
H    -4.277472     9.078092    -3.297989
O    -4.813099     8.282344    -3.188240
H    -4.404463     7.806068    -2.447361
H    -9.712318     5.768369    -4.664265
O    -10.245625     4.964226    -4.497842
H    -11.126674     5.164664    -4.815713
H     2.774219     6.524081     6.112049
O     1.814178     6.621290     6.210097
H     1.470351     5.707658     6.111364
H     4.806611     8.531728     0.046463
O     5.123989     8.535989     0.967432
H     5.531549     7.672425     1.101254
H     4.137895    -7.458368    -4.319327
O     3.378007    -7.744556    -4.858574
H     3.099761    -8.584873    -4.479597
H     0.382382     8.661850     4.199282
O     1.059468     8.015916     3.973069
H     1.286640     7.526336     4.789518
H     5.235333     4.162109    -3.179220
O     6.196658     4.135616    -3.124094
H     6.406076     3.554593    -2.376142
H    -2.574262    -1.528893     7.579054
O    -2.063563    -0.734915     7.795407
H    -2.688712    -0.107081     8.168028
H    -9.027543     7.910575    -4.173598
O    -8.964941     7.322201    -4.927488
H    -8.007970     7.158113    -5.063073
H     3.528079    -8.991454     1.120884
O     2.851551    -8.358670     1.367659
H     3.326672    -7.552448     1.644415
H     3.588121     8.163462     1.793546
O     2.797163     7.601044     1.908797
H     2.352070     7.840096     2.734538
N     0.782961    -2.221188    -9.471626
H     0.056101    -2.229189    -10.099592
H     0.370930    -2.463689    -8.610074
