36
Coordinates from ORCA-job grain_mol_opt.QMRegion
  H   -0.79461791957539      6.29487632841430      4.94433591358748
  O   -1.40297317045025      6.89503707459501      5.45154874114047
  H   -1.32351317350395      7.75571986831601      4.97753025292547
  H   -1.67762677864216      4.38577601724041      7.60034685447424
  O   -0.82085236447356      4.54799071616052      8.06028749735852
  H   -0.59957377221903      5.49278175278285      7.96266208763870
  H   -3.81246697454960      4.61241885460022      7.58405167348875
  O   -3.23525924689664      4.09617669783666      6.98521656414817
  H   -3.44922729635125      3.17523471105652      7.23069797130820
  H   -1.69834457245817      9.00184093929083      3.38489889703118
  O   -1.33769982156389      9.34611545424815      4.23153243028398
  H   -2.12805672603217      9.47873966102981      4.79544691817622
  H   -3.88359116233239      5.09732525624782      5.28160961666295
  O   -3.96478381829906      6.04248071912710      5.09707175284753
  H   -3.04094655124025      6.36470641395397      5.21832247725810
  H   -5.69177294630421      3.68602795599803      5.33004421268589
  O   -6.39069587001679      4.07527304477371      5.89737857988990
  H   -6.14866218955350      5.00594087363462      5.95275536578565
  H   -2.06078237627352      5.33081467602381     10.59005448514933
  O   -2.76613301513193      4.69214873273927     10.82874861383741
  H   -2.89152722182887      4.77893304816180     11.77650093173616
  H   -4.21724078475935      4.97368216108176      9.73505513212042
  O   -4.81960216543967      5.16969446219135      8.99036403485931
  H   -5.43866513688783      4.42152456022679      8.95190436665961
  H   -0.77000430512051      7.48484565189793     10.81773508233289
  O   -1.15855178017450      6.87197558669622     10.18937892830465
  H   -0.66211464528474      7.01397610016434      9.34342909837741
  H   -3.43704453008392      8.70353317910091      6.66059508722151
  O   -3.61199279794577      9.16664255220198      5.81984082570806
  H   -4.16398700685021      8.54177665056313      5.33552480885417
  H   0.73290792634462      7.09780231774513      7.37919370599853
  O   -0.16346099481465      7.17057197502492      7.76436834333740
  H   -0.73820984511762      7.18119887722119      6.94854335299095
  O   -3.37197263674933      7.68492141611862      8.26248432497477
  H   -4.03612869428789      6.99930119213211      8.41688880718724
  H   -2.73826302941476      7.59240461940778      8.98749621669744
