603

H     0.251029     2.971577    -0.591538
O     0.792035     2.375703    -1.152784
H     1.731039     2.487199    -0.860745
H    -0.069723    -1.292492     3.147376
O     0.323925    -0.591192     2.605671
H    -0.156667     0.221197     2.836244
H    -2.391759     2.425057    -0.542390
O    -2.182709     1.956423     0.283283
H    -2.195875     1.008233     0.058500
H    -4.656622     0.561087     2.176957
O    -4.973631    -0.372167     2.190361
H    -4.469329    -0.849703     1.523388
H     0.071216    -0.293871     0.949358
O    -0.132972    -0.061301     0.023635
H     0.210843     0.833482    -0.107474
H    -0.148496    -3.562067     3.773775
O    -0.427488    -2.732337     4.195042
H     0.219003    -2.562165     4.896533
H    -4.881299     2.543676     1.325551
O    -4.240637     2.136154     1.940352
H    -3.398795     2.117305     1.425730
H    -3.238127     3.912097    -2.217843
O    -2.499153     3.318329    -1.984721
H    -2.133761     3.038013    -2.845391
H    -0.118321    -3.789890     0.499361
O     0.221454    -2.973139     0.918690
H    -0.566162    -2.485813     1.228266
H    -2.372395    -1.523975     2.464671
O    -2.183309    -1.990293     1.624291
H    -2.440211    -1.403114     0.894103
H     2.079989    -1.427356    -1.124846
O     2.310901    -1.680612    -0.206943
H     1.521364    -2.108506     0.175694
H    -1.386146     1.838135     1.906296
O    -1.476877     1.441945     2.783181
H    -1.462304     2.154630     3.447448
H     0.215493    -2.688400    -1.573896
O    -0.541636    -2.078739    -1.627377
H    -0.362226    -1.350415    -0.994993
H    -3.430238    -2.910743    -0.395734
O    -2.713107    -3.403667    -0.815546
H    -2.002815    -2.773200    -1.034975
H     2.777863     0.143072     2.929468
O     2.877187    -0.038178     3.891622
H     2.967712     0.854760     4.295422
H    -3.540926     6.387368    -0.537943
O    -3.316504     7.058744    -1.235757
H    -3.164450     7.899203    -0.761010
H     3.906257     0.597805     1.181595
O     2.955622     0.417149     1.298820
H     2.717946    -0.334453     0.718109
H    -5.775333     0.856350    -1.610616
O    -4.865214     1.183836    -1.483285
H    -4.976650     2.011705    -0.971486
H    -1.205893     5.411820     2.206576
O    -1.828443     4.664434     2.085051
H    -1.910649     4.244588     2.946778
H     3.502956     2.769340     0.425849
O     3.250136     2.735120    -0.511800
H     3.584147     1.897718    -0.873940
H     1.497787    -4.682001    -2.254782
O     1.562732    -3.905555    -1.680678
H     2.356666    -3.443489    -2.032395
H    -0.916199    -0.069260    -2.552319
O    -0.279988     0.580899    -2.876432
H    -0.020564     1.165159    -2.140930
H     1.705941    -4.670832    -0.183213
O     1.812492    -5.307908     0.559706
H     1.349225    -6.118987     0.263379
H    -1.219360    -3.250163    -2.884855
O    -1.047286    -3.934707    -3.544920
H    -0.920293    -4.780970    -3.075217
H    -2.775954     3.323450     4.699037
O    -1.794564     3.323372     4.665473
H    -1.501781     2.919925     5.500980
H     0.965991     5.049076     4.072167
O     0.020003     5.282643     4.120016
H    -0.453029     4.480374     4.379752
H    -1.723804    -4.636064    -0.376000
O    -0.958933    -5.177170    -0.090752
H    -1.306850    -5.863909     0.487339
H    -3.915875     5.844773    -2.607589
O    -4.262618     5.009244    -2.936275
H    -4.111178     4.974089    -3.905343
H    -2.424794    -3.675049     1.931233
O    -2.443237    -4.578926     2.307967
H    -1.503375    -4.817059     2.447918
H    -4.689280    -2.966131    -2.903453
O    -3.837287    -3.199256    -3.310088
H    -3.505536    -3.992120    -2.844264
H     0.344163     1.390962     4.610701
O     0.850027     2.151991     4.278387
H     0.897825     2.810383     4.985649
H    -4.648769    -5.155798    -1.575789
O    -5.350874    -4.802841    -1.001991
H    -5.137384    -5.157085    -0.117915
H     2.332976    -6.466382    -4.044195
O     1.995869    -6.138524    -3.190414
H     2.430875    -6.711966    -2.527365
H     0.472751    -3.364215    -4.010381
O     1.276098    -2.998693    -4.433241
H     0.957064    -2.625067    -5.281091
H     1.969027    -1.738333     2.977156
O     2.124657    -2.669334     2.760780
H     1.439307    -2.883201     2.093127
H    -3.009673    -1.794317    -3.214072
O    -2.588278    -0.907965    -3.146530
H    -3.241654    -0.261973    -3.469352
H    -3.185749     4.987498     1.077710
O    -3.968892     5.360492     0.625288
H    -4.384352     5.918205     1.331559
H     0.882495     2.267090     2.591600
O     0.984920     2.268757     1.620727
H     1.707346     1.641349     1.451560
H     0.016343     5.734329    -0.647417
O     0.517993     6.427747    -1.145073
H     0.646568     7.206866    -0.556698
H     0.346878     7.050133     2.584647
O    -0.010459     6.675828     1.762224
H     0.647851     5.997925     1.506272
H    -2.475015     0.229767     3.336354
O    -2.696948    -0.583584     3.842180
H    -1.935908    -0.623637     4.463087
H    -0.888906     0.568200     6.021410
O    -0.614293     0.050175     5.246394
H     0.098942    -0.554070     5.532502
H     0.715343    -4.979397     1.975835
O     0.173495    -5.089211     2.780626
H     0.318335    -6.009877     3.052396
H    -2.112222    -8.073826     0.443716
O    -1.790142    -7.586331     1.229345
H    -2.576608    -7.274556     1.684731
H    -0.590995     6.867151    -2.235016
O    -1.286813     7.254707    -2.833626
H    -2.094767     7.167842    -2.273603
H    -1.193736     4.277725     0.597786
O    -0.793057     4.329707    -0.291554
H    -1.499700     4.074452    -0.926486
H    -4.404550     2.760958     3.502352
O    -4.402622     2.932090     4.466943
H    -4.486019     2.049050     4.876287
H     2.029418    -3.567809     4.239736
O     1.965812    -4.039752     5.093227
H     2.473094    -3.503049     5.723574
H     4.693225    -3.179639     0.834331
O     4.532557    -3.104440    -0.131954
H     3.673854    -2.626609    -0.215707
H    -2.716699    -0.733090    -1.355397
O    -3.044872    -0.463577    -0.480872
H    -3.845019     0.062138    -0.688752
H    -1.609647    -0.744798    -4.635266
O    -1.103917    -0.532061    -5.440181
H    -0.395537     0.068846    -5.158123
H     1.800600    -1.699230    -3.381577
O     1.892301    -0.954081    -2.756689
H     1.115948    -0.375252    -2.889291
H     3.668459    -3.107474     2.546051
O     4.627652    -3.336203     2.473875
H     4.682258    -4.296503     2.599584
H     3.431979    -6.106611     3.118551
O     3.787683    -5.905742     2.218476
H     3.050160    -5.560307     1.675297
H    -3.335922     1.624687    -4.183916
O    -4.183342     1.156360    -3.993681
H    -4.399259     1.301292    -3.037110
H    -5.080601     4.160334     0.061639
O    -5.518605     3.294335    -0.039862
H    -6.448660     3.412393    -0.323747
H     6.738518    -1.166458    -1.368419
O     5.968513    -1.017633    -0.813243
H     5.548512    -1.885248    -0.618134
H     4.599202    -3.154414    -2.475107
O     3.730965    -2.983818    -2.890345
H     3.734344    -3.601437    -3.647328
H     4.440324    -2.278962     5.617059
O     4.097913    -2.744121     6.410696
H     4.432436    -3.649319     6.328694
H    -0.749030     6.352520     5.070088
O    -1.345493     6.928407     5.608231
H    -1.359293     7.805485     5.167198
H     4.702496    -0.120161    -1.470965
O     3.935623     0.422975    -1.732146
H     3.243551    -0.176413    -2.064880
H    -0.988787     4.441221    -4.006483
O    -1.682383     5.056229    -4.309007
H    -1.507630     5.895660    -3.831978
H     0.768636     3.300857    -2.637304
O     0.645442     3.639196    -3.557962
H     0.657225     2.826059    -4.077179
H    -5.378013    -5.179263     1.789777
O    -4.681324    -5.774198     1.434974
H    -3.840792    -5.357935     1.705146
H     7.885825    -1.674682    -4.038875
O     7.628381    -1.361596    -3.139099
H     7.141217    -0.517406    -3.295869
H     3.705782    -5.057148    -5.295127
O     4.468820    -4.684534    -4.814251
H     4.852723    -5.395692    -4.268468
H    -3.779140     0.033177     4.930354
O    -4.379717     0.497284     5.563402
H    -5.039968    -0.160971     5.854870
H     3.469481    -5.927696    -0.524811
O     4.342726    -5.680957    -0.841519
H     4.418590    -4.718374    -0.698910
H     5.004502    -0.319211    -4.165749
O     4.471477    -1.032907    -4.555039
H     4.144009    -1.614405    -3.836679
H    -1.180438     1.464334    -3.869637
O    -1.794019     2.115723    -4.275483
H    -1.463121     2.338709    -5.166503
H     4.890034    -6.307600    -2.319589
O     5.222586    -6.633181    -3.185136
H     6.040880    -7.113557    -2.998537
H     8.745232    -5.077261    -2.923800
O     8.054480    -5.495232    -2.364949
H     8.088842    -6.452480    -2.467471
H     2.356325     4.716093     0.455613
O     1.760534     4.716344     1.213189
H     1.404257     3.794744     1.300856
H    -4.410389    -2.619973     4.227140
O    -5.304391    -2.280032     4.025383
H    -5.167498    -1.499450     3.449101
H    -5.841226    -3.181484     1.313124
O    -6.304001    -3.738331     1.981809
H    -6.115333    -3.302778     2.832186
H     1.691392     3.484626     6.856855
O     1.068750     4.001394     6.323629
H     0.285316     4.152692     6.895193
H     5.005694    -2.154918     3.611468
O     5.026262    -1.436410     4.275541
H     4.214521    -0.880258     4.118567
H     2.395585    -5.562022     4.834040
O     2.775852    -6.445856     4.574568
H     2.030955    -7.027351     4.399742
H     2.261389    -4.502589    -6.794643
O     2.092408    -4.990774    -5.978828
H     1.827225    -4.299008    -5.323855
H     6.444688    -4.088529    -0.508612
O     7.197650    -4.491956    -0.045137
H     7.705011    -4.914464    -0.766012
H    -1.720710     4.504903     7.696275
O    -0.821571     4.603752     8.081033
H    -0.641358     5.562858     8.105989
H    -5.109718     5.709801    -5.605120
O    -4.500029     4.948293    -5.622653
H    -3.734304     5.170849    -6.174416
H     3.285170    -2.514109    -8.441307
O     3.198977    -3.048864    -7.641185
H     4.075123    -3.022001    -7.211593
H    -0.752628     8.818857    -2.253878
O    -0.589162     9.693938    -1.834532
H     0.072335     9.539437    -1.140066
H     2.071337    -0.897627     5.206564
O     1.498497    -1.422889     5.794514
H     1.593125    -1.077698     6.691628
H     5.210236    -2.009498    -5.697930
O     5.556517    -2.775969    -6.219923
H     5.282480    -3.565758    -5.702436
H     5.700314    -5.199863     4.681374
O     5.178351    -5.114876     5.508287
H     4.456829    -5.746879     5.422751
H    -3.969188     1.161479     7.002686
O    -3.776919     1.638090     7.846174
H    -4.653205     2.022992     8.107302
H    -1.847182     9.634669    -0.746453
O    -2.708113     9.503053    -0.275588
H    -3.320705     10.130016    -0.663820
H    -5.944635     4.702350    -2.943804
O    -6.853384     4.583751    -3.287719
H    -6.762514     3.881427    -3.965109
H     0.099567    -7.050203    -1.147273
O     0.563746    -7.486172    -0.399472
H    -0.115510    -7.680684     0.249383
H    -7.633538     3.804574    -1.978831
O    -7.894774     3.218216    -1.238188
H    -7.751911     2.309208    -1.577371
H     3.977992    -0.876582     6.981616
O     3.986998     0.087629     6.972660
H     4.799243     0.376906     6.540560
H     2.137610     5.942818    -1.046689
O     3.098325     5.747986    -0.987554
H     3.298158     5.163954    -1.759777
H     6.555350    -5.915036     0.667103
O     6.187132    -6.651185     1.201450
H     5.282379    -6.374299     1.427708
H    -3.864100     4.744707     7.776226
O    -3.297303     4.282408     7.116989
H    -3.490294     3.338810     7.227457
H     5.767263    -7.931019     0.133665
O     5.479364    -8.618610    -0.503312
H     4.650206    -8.293185    -0.897761
H    -0.552771     2.057467     7.688465
O    -1.186111     1.994482     6.953396
H    -2.054387     1.851410     7.349922
H    -6.378846    -0.107279     1.058861
O    -6.699197    -0.189930     0.145990
H    -7.617560    -0.461991     0.163671
H    -5.367261    -3.049503    -0.591863
O    -5.116140    -2.347331     0.034429
H    -5.685368    -1.574284    -0.154431
H     4.326684     5.585418     0.315139
O     4.657148     5.698400     1.219820
H     3.958209     6.203667     1.670108
H    -9.039983    -1.731017    -2.256491
O    -8.492669    -1.528974    -1.470212
H    -8.619193    -2.265981    -0.832801
H    -5.519306     3.484528    -5.534337
O    -6.036980     2.776175    -5.116795
H    -5.370051     2.189699    -4.704124
H     3.185292    -0.875573    -5.660520
O     2.329851    -0.998176    -6.126291
H     2.415434    -1.847073    -6.599341
H     8.117186    -1.334688    -6.034490
O     8.126375    -2.198980    -5.578361
H     7.269889    -2.598846    -5.828328
H     7.622821     1.005615    -6.314978
O     7.434844     0.157237    -6.728733
H     6.453266     0.107411    -6.765251
H    -7.856056    -3.678185     0.926826
O    -8.534938    -3.571655     0.242849
H    -8.436318    -4.330891    -0.359069
H    -2.405467     8.751991     1.287698
O    -2.252820     8.163280     2.040201
H    -1.482954     7.610437     1.816343
H    -4.440702     6.450333     3.493513
O    -4.610771     6.876311     2.636876
H    -3.847848     7.462626     2.497370
H     3.372570     3.575809    -3.351977
O     3.632334     4.514847    -3.209077
H     3.224085     5.041949    -3.924026
H    -6.111571    -1.591542    -3.445665
O    -6.195141    -2.170641    -2.661522
H    -6.978771    -1.862891    -2.152983
H     6.471993     1.065172     4.734192
O     6.078036     1.604953     5.436561
H     6.267133     2.523125     5.145187
H     1.431402     1.584488    -5.818608
O     1.217848     1.022038    -5.039476
H     1.590739     0.155232    -5.307421
H    -2.484421     2.980312     10.479335
O    -2.271810     2.072820     10.206110
H    -2.869606     1.872674     9.473918
H     7.631634    -0.482520     3.078028
O     6.881966     0.093149     3.248563
H     6.189593    -0.507814     3.626891
H    -5.654809    -8.039673    -0.702971
O    -4.920138    -8.108426    -0.056386
H    -4.923555    -7.290772     0.465016
H    -5.173366    -0.104506    -4.719041
O    -5.791021    -0.816384    -4.957669
H    -6.628828    -0.374726    -5.156813
H     1.890792    -0.186063    -7.520469
O     1.688570     0.282669    -8.365617
H     2.267487    -0.121889    -9.017040
H     4.874896    -1.380405    -9.308726
O     3.949541    -1.152924    -9.591166
H     3.929451    -1.270277    -10.540227
H     7.568114    -2.555585     4.195289
O     7.715043    -2.591371     3.235837
H     7.221835    -3.382204     2.963625
H     6.725035    -5.879300     2.680148
O     6.787042    -5.204375     3.381645
H     7.663120    -5.289515     3.798892
H    -1.817825     8.963495     3.491250
O    -1.568157     9.269031     4.388595
H    -2.416134     9.400910     4.845967
H    -7.386477     1.582173    -5.254515
O    -7.961332     0.838176    -5.009178
H    -8.863183     1.237289    -4.933513
H     6.927987    -1.068536    -8.409298
O     6.347773    -1.790960    -8.673105
H     6.119029    -2.239779    -7.840802
H    -1.704271     5.962102    -7.274816
O    -2.098109     5.204023    -6.839724
H    -1.814189     5.233102    -5.868539
H     0.005500     3.328381     9.018331
O     0.202982     2.408902     9.273885
H    -0.595339     2.144469     9.780228
H     6.759533    -2.764355    -2.710213
O     6.229985    -3.508867    -2.368103
H     6.697930    -4.319556    -2.615781
H    -4.074358    -3.058969    -4.946678
O    -4.229724    -2.947394    -5.911408
H    -4.775367    -2.153303    -5.968048
H     1.984830     2.201235     8.460027
O     2.648252     2.313902     7.769566
H     3.070861     1.443735     7.654452
H    -6.903925    -5.187026    -1.397555
O    -7.819603    -5.456580    -1.642916
H    -7.953109    -5.054286    -2.526055
H    -3.823507     5.272542     5.692384
O    -3.790258     6.041027     5.101513
H    -2.856362     6.335050     5.196056
H    -7.881638     0.102251    -1.969564
O    -7.392629     0.826437    -2.382971
H    -7.619982     0.814776    -3.336436
H     5.840245     0.146706     0.407090
O     5.618080     0.866616     1.030065
H     6.130053     0.670601     1.841565
H    -6.210726     3.327889     7.392645
O    -6.082630     2.810214     8.221530
H    -6.682537     2.048515     8.133486
H     2.281393    -8.058673    -0.845659
O     2.959058    -8.046790    -1.541264
H     2.733901    -8.760594    -2.154569
H    -2.741851    -3.947972    -6.199832
O    -1.989287    -4.515345    -5.967344
H    -1.711804    -4.222235    -5.071033
H    -5.639441     3.777725     5.305325
O    -6.288242     4.174643     5.922629
H    -6.125188     5.118738     5.908605
H    -1.014996    -7.099978    -3.165413
O    -0.542466    -6.430644    -2.636840
H     0.364708    -6.360520    -3.018380
H     4.448913     2.033751     5.123325
O     3.507712     2.275400     5.003657
H     3.123274     2.288836     5.885533
H     4.114670     4.674592     6.295397
O     4.193959     5.404975     5.677353
H     3.626776     5.163085     4.906832
H     2.768785     3.634403     3.918918
O     2.591154     4.574292     3.750465
H     2.470766     4.670117     2.784319
H     9.396473     0.224346    -1.077332
O     8.593446     0.388780    -0.579410
H     8.415446    -0.431397    -0.089384
H    -2.095918     5.339633     10.646089
O    -2.817849     4.711184     10.877644
H    -3.035985     4.888379     11.792883
H     7.976605    -2.994536     0.322639
O     8.398628    -2.148356     0.577922
H     8.332200    -2.142900     1.540133
H     5.375258     3.679944     3.520598
O     6.032076     3.948567     4.185065
H     5.618238     4.665360     4.687414
H    -4.204323     5.041025     9.780612
O    -4.837396     5.191761     9.058532
H    -5.449257     4.443103     9.056400
H    -7.007637    -3.463638    -3.487353
O    -7.628256    -4.075781    -3.935290
H    -7.107126    -4.517971    -4.637477
H     0.032711     6.147888     10.765650
O    -0.831720     6.479588     10.518252
H    -0.715877     6.909859     9.651877
H     2.636128     1.505998    -4.023298
O     3.464345     1.946756    -3.749425
H     3.825125     1.406440    -3.011683
H    -6.967530    -0.200653     7.217447
O    -7.476062     0.578024     7.497563
H    -8.099662     0.760689     6.793636
H    -2.739129    -9.858394    -0.830180
O    -2.675919    -8.916803    -0.990248
H    -3.581743    -8.550145    -0.749762
H    -10.066120     3.090074    -4.900838
O    -10.183479     2.172662    -4.620108
H    -10.398760     2.256546    -3.670305
H    -2.063321    -3.007453     4.611542
O    -2.938346    -3.447323     4.681728
H    -2.932340    -4.065197     3.925354
H    -0.173852    -7.966235     2.483867
O     0.652523    -7.756060     2.931933
H     1.370765    -8.051745     2.344950
H     6.710162    -2.358646     6.388312
O     7.160025    -3.068540     5.925381
H     6.530050    -3.803377     5.886644
H    -5.267256    -1.985090     6.941598
O    -5.943655    -1.486960     6.457838
H    -5.927569    -1.864168     5.548627
H     0.926409     2.955063    -7.163032
O     1.856516     2.643521    -7.199175
H     1.836820     1.885486    -7.817470
H    -3.950582     8.775587     6.666928
O    -3.946045     8.772597     5.709577
H    -4.073261     7.845093     5.442577
H    -2.058091     10.331962    -2.746354
O    -2.961780     10.512231    -3.040885
H    -2.896480     11.139480    -3.760376
H     9.414879    -4.044825     4.039524
O     9.136063    -4.722489     4.663027
H     8.706161    -4.249757     5.386673
H    -0.732293    -5.983531    -5.842014
O    -0.028569    -6.550108    -5.509084
H     0.806733    -6.088129    -5.727016
H     1.744999     8.402701     0.776095
O     1.390943     8.764626    -0.065829
H     2.191419     8.826933    -0.626086
H     3.582971     2.955601    -6.604649
O     4.398564     2.640147    -6.190775
H     4.142005     2.355183    -5.286867
H     3.623634     7.337777    -1.251611
O     3.798599     8.304422    -1.385961
H     4.377917     8.309254    -2.161116
H     4.396163     0.009013    -7.915826
O     4.775517     0.154360    -7.047310
H     4.592122     1.086058    -6.801394
H     6.033869     1.945763    -0.480200
O     6.600901     2.138295    -1.240298
H     7.424909     1.657884    -1.047040
H     6.687393    -8.416738    -1.609308
O     7.323429    -8.206624    -2.345952
H     7.688914    -9.041221    -2.634340
H    -5.299009    -5.773953    -5.408235
O    -5.916571    -5.102327    -5.723091
H    -5.365486    -4.333966    -5.959953
H     0.688288     7.192781     7.594385
O    -0.212996     7.220890     7.954343
H    -0.769127     7.234536     7.137454
H    -8.894574    -2.819235    -4.102911
O    -9.415262    -2.010722    -3.935823
H    -9.129091    -1.346126    -4.566206
H    -2.406570    -5.972888    -2.145164
O    -3.285475    -5.687906    -2.412732
H    -3.472552    -6.061796    -3.298873
H    -2.984813    -5.885068    -5.410259
O    -3.584397    -6.495324    -4.937908
H    -3.101976    -7.315311    -4.771478
H    -1.315597     3.637407    -7.029502
O    -0.788179     2.871387    -6.714306
H    -1.016309     2.096655    -7.287969
H    -0.204001     0.429803    -8.219945
O    -1.101908     0.661054    -7.939464
H    -1.273403     0.142937    -7.137210
H    -10.420160     4.067928    -2.737311
O    -10.487732     3.290087    -2.168058
H    -9.657732     3.263379    -1.660245
H     4.590201     4.094430     1.715886
O     4.378578     3.176067     1.996838
H     5.090553     2.595986     1.713400
H     6.486555     1.414807    -4.226320
O     6.185948     0.788881    -3.532353
H     6.213641     1.286176    -2.689654
H     9.636069    -2.210936    -0.935852
O     9.912578    -1.996450    -1.835638
H     9.111887    -1.658144    -2.279092
H     9.971865    -3.306176    -3.104442
O     9.705117    -3.958573    -3.779167
H     9.310547    -3.451257    -4.499223
H    -7.695649    -8.558902    -1.665295
O    -6.957695    -7.964777    -1.793911
H    -7.335111    -7.051638    -1.784540
H     6.228852     7.600373    -3.906107
O     5.485059     7.171314    -3.475795
H     5.800126     6.272699    -3.285574
H     0.100122    -8.156014    -5.216906
O     0.124047    -9.139016    -5.084838
H     0.274371    -9.502789    -5.957422
H    -2.329519    -8.658511    -2.716367
O    -2.096539    -8.395389    -3.626276
H    -1.449445    -9.013437    -3.984890
H     2.185778    -10.801964    -3.496974
O     2.139867    -9.847431    -3.472534
H     1.354678    -9.576367    -3.999010
H     6.835121     3.344679    -4.573170
O     6.897373     2.670011    -5.279538
H     6.101735     2.801021    -5.817602
H    -3.559008    -3.703787     7.719094
O    -3.672995    -2.915898     7.189097
H    -3.422279    -3.155255     6.270613
H    -0.636583    -3.347590    -6.727391
O    -0.005156    -2.617393    -6.734698
H    -0.485671    -1.840649    -6.393480
H     0.646923     0.480458     8.749064
O     0.654588    -0.233950     8.108120
H    -0.267418    -0.523727     8.020953
H    -5.833693     7.382151    -4.257420
O    -6.337018     6.763212    -4.817616
H    -6.622301     6.031566    -4.226527
H    -4.276988     9.117239    -3.267659
O    -4.815042     8.322527    -3.163233
H    -4.416706     7.843277    -2.418702
H    -9.709784     5.811562    -4.649246
O    -10.243256     5.007159    -4.484687
H    -11.123553     5.207302    -4.804785
H     2.773466     6.534274     6.133215
O     1.813177     6.631731     6.228702
H     1.469723     5.717731     6.129914
H     4.806748     8.557874     0.062919
O     5.119278     8.566486     0.984747
H     5.527272     7.703962     1.125885
H     4.145412    -7.411290    -4.345309
O     3.387556    -7.696897    -4.887473
H     3.107248    -8.537390    -4.510384
H     0.382211     8.677157     4.226593
O     1.060514     8.033360     3.997554
H     1.287375     7.540307     4.812387
H     5.258598     4.197256    -3.187210
O     6.223543     4.176528    -3.109167
H     6.413988     3.589409    -2.362655
H    -2.571891    -1.525769     7.570523
O    -2.062021    -0.732095     7.790255
H    -2.688198    -0.106251     8.164452
H    -9.026240     7.951623    -4.150709
O    -8.963533     7.366816    -4.907336
H    -8.006447     7.202181    -5.042757
H     3.534638    -8.963294     1.087729
O     2.857939    -8.332168     1.338145
H     3.332381    -7.526294     1.616781
H     3.583033     8.192215     1.820955
O     2.792694     7.628523     1.930348
H     2.345546     7.862069     2.757128
N     1.844362     5.765035    -4.888626
H     1.596390     6.615093    -4.512712
H     1.291912     5.111208    -4.416321
