30
Coordinates from ORCA-job grain_mol_opt.QMRegion
  H   6.23812833304867      0.78680355997008      4.67456905237035
  O   6.01284755299722      1.35956869236711      5.42819965588349
  H   6.27396790344658      2.25907598755605      5.14848193726710
  H   7.81659945247892      0.51438682378705      2.84833254286845
  O   6.95308804611039      0.10569209703475      3.08009165403964
  H   7.09693346544247     -0.85793781649622      3.14045311631917
  H   5.75531586846336      0.05683174120918      0.31936868361086
  O   5.56789992738841      0.79106372348326      0.93742445958603
  H   6.04582755774926      0.54440290701941      1.76853291719764
  H   9.44879397541586      0.04186287427354     -0.95694529861442
  O   8.70776264188920      0.36184183778462     -0.42084298293007
  H   8.35735097316849     -0.47123180642161     -0.04514481664530
  H   7.95538251805954     -3.08252551581271      0.39617199408894
  O   8.41477142644215     -2.24391166418910      0.63054817739716
  H   8.31256371934800     -2.21258733115084      1.59277845641984
  H   5.38808598615418      3.64118352856374      3.59411351178059
  O   6.07188797377867      3.87769991564882      4.24794848346786
  H   5.64837848521071      4.58368595143549      4.76836181536296
  H   6.07093328509440      1.90758965305432     -0.56743496061480
  O   6.66393843635878      2.14983634674235     -1.29378650610588
  H   7.46207355466998      1.62806833844318     -1.11640856350401
  H   4.58824925224366      4.14006166356949      1.64595469194780
  O   4.37747627285905      3.21637001495739      1.92296417043660
  H   5.07648893535083      2.65341128110195      1.56956878384935
  H   9.67437937578427     -2.27825119018155     -1.13269966617214
  O   9.90457381446474     -1.85935353066079     -1.97342455186571
  H   9.03466981304212     -1.63729808923292     -2.37745858060076
  O   9.09860689862575      1.51539387481555      2.11998328591552
  H   8.80905272329914      2.43421346562403      2.13018839439334
  H   9.08303429082844      1.24563907047808      1.18037047945803
