27

H    -4.618247     0.593456     2.176336
O    -4.917633    -0.348760     2.131749
H    -4.332925    -0.775721     1.492551
H    -5.799463    -3.217340     1.291143
O    -6.294359    -3.785974     1.942539
H    -6.103960    -3.364436     2.806129
H    -6.243702    -0.124507     0.996603
O    -6.753085    -0.280848     0.177177
H    -7.644292    -0.509938     0.493881
H    -5.351353    -3.146994    -0.645786
O    -5.135237    -2.437163    -0.008845
H    -5.765685    -1.696537    -0.172853
H    -9.043417    -1.809335    -2.482316
O    -8.526840    -1.558554    -1.685470
H    -8.568061    -2.310571    -1.057794
H    -7.788943    -3.775544     0.822292
O    -8.496984    -3.663619     0.153766
H    -8.414389    -4.427485    -0.451969
H    -6.060480    -1.637324    -3.683997
O    -6.164300    -2.186898    -2.872422
H    -6.942942    -1.851976    -2.383054
H    -7.885124     0.150668    -2.040939
O    -7.381459     0.849303    -2.483437
H    -7.631718     0.838080    -3.428533
N    -9.310804    -1.020404     1.242525
H    -9.894542    -0.638842     0.578218
H    -9.324803    -1.967172     1.038262
