603

H     0.214874     3.016546    -0.677435
O     0.735860     2.349548    -1.174432
H     1.675500     2.476526    -0.902609
H    -0.055136    -1.334099     3.138247
O     0.336683    -0.632570     2.595278
H    -0.139790     0.180579     2.832326
H    -2.384470     2.397982    -0.530029
O    -2.171783     1.924211     0.291547
H    -2.189895     0.977182     0.063340
H    -4.643081     0.527191     2.187494
O    -4.961091    -0.405930     2.197944
H    -4.458406    -0.881616     1.528551
H     0.079839    -0.328423     0.941959
O    -0.119393    -0.088869     0.016157
H     0.219466     0.808277    -0.102026
H    -0.133902    -3.606513     3.758243
O    -0.411101    -2.777268     4.181282
H     0.236672    -2.609701     4.882563
H    -4.867160     2.513839     1.342997
O    -4.226430     2.101432     1.954478
H    -3.385035     2.084957     1.439500
H    -3.237977     3.892041    -2.198349
O    -2.500358     3.293507    -1.971620
H    -2.144366     3.008574    -2.833246
H    -0.114198    -3.822966     0.481849
O     0.228058    -3.007546     0.901684
H    -0.557808    -2.521092     1.217400
H    -2.358968    -1.561577     2.461922
O    -2.172569    -2.024927     1.618825
H    -2.432638    -1.435190     0.892060
H     2.081727    -1.458138    -1.140445
O     2.315797    -1.714908    -0.224727
H     1.526988    -2.142468     0.159950
H    -1.370731     1.802702     1.913133
O    -1.460312     1.401701     2.787820
H    -1.443543     2.111425     3.455612
H     0.215039    -2.714661    -1.588545
O    -0.540222    -2.102302    -1.639170
H    -0.358495    -1.378072    -1.003395
H    -3.427512    -2.937903    -0.401120
O    -2.711517    -3.429053    -0.825198
H    -2.001683    -2.797956    -1.043273
H     2.795768     0.098386     2.918042
O     2.901634    -0.088735     3.878360
H     2.990587     0.803148     4.287106
H    -3.511964     6.368687    -0.520245
O    -3.274938     7.033502    -1.218841
H    -3.131043     7.876799    -0.745940
H     3.918381     0.559664     1.167933
O     2.968289     0.377154     1.287153
H     2.728637    -0.372145     0.704820
H    -5.771904     0.837028    -1.595126
O    -4.860817     1.163024    -1.470246
H    -4.969618     1.989835    -0.955549
H    -1.187964     5.373830     2.223337
O    -1.813790     4.627554     2.105589
H    -1.889677     4.206017     2.966908
H     3.510163     2.741727     0.416377
O     3.259191     2.702046    -0.522214
H     3.590412     1.860531    -0.876491
H     1.493601    -4.707292    -2.280156
O     1.560908    -3.932571    -1.704034
H     2.354727    -3.470527    -2.055879
H    -0.915957    -0.091797    -2.555079
O    -0.281754     0.560870    -2.878657
H    -0.018908     1.140640    -2.140490
H     1.707749    -4.703227    -0.209082
O     1.816616    -5.343632     0.530458
H     1.350596    -6.152738     0.233086
H    -1.224617    -3.271179    -2.897238
O    -1.053224    -3.952647    -3.560568
H    -0.926755    -4.801155    -3.094593
H    -2.751732     3.278206     4.714719
O    -1.770646     3.274487     4.677785
H    -1.475877     2.869705     5.511997
H     0.990431     5.002624     4.082065
O     0.044641     5.235421     4.137206
H    -0.427167     4.431778     4.393975
H    -1.722509    -4.664278    -0.392210
O    -0.957278    -5.207237    -0.111490
H    -1.304323    -5.895324     0.465595
H    -3.906724     5.828283    -2.576087
O    -4.259122     4.995706    -2.907992
H    -4.106788     4.964222    -3.876678
H    -2.416046    -3.710270     1.920711
O    -2.434193    -4.616145     2.292594
H    -1.494311    -4.855041     2.430639
H    -4.693378    -2.981788    -2.905622
O    -3.842382    -3.214221    -3.315051
H    -3.510940    -4.009600    -2.853201
H     0.365924     1.343588     4.609993
O     0.872147     2.104015     4.277161
H     0.923506     2.760645     4.986093
H    -4.651446    -5.177034    -1.585559
O    -5.351431    -4.824985    -1.008778
H    -5.136219    -5.182436    -0.126337
H     2.322405    -6.486622    -4.077751
O     1.988373    -6.160877    -3.221930
H     2.424190    -6.737269    -2.562065
H     0.465382    -3.382351    -4.027814
O     1.267417    -3.015123    -4.451994
H     0.945939    -2.639875    -5.298113
H     1.982564    -1.781768     2.961277
O     2.137495    -2.711613     2.739356
H     1.449166    -2.922696     2.074170
H    -3.012861    -1.811629    -3.217096
O    -2.589551    -0.925856    -3.150365
H    -3.245399    -0.278387    -3.465628
H    -3.170209     4.958172     1.096899
O    -3.952867     5.333888     0.645857
H    -4.365510     5.889630     1.355216
H     0.897894     2.226964     2.587541
O     0.996013     2.225364     1.615956
H     1.722208     1.602396     1.447713
H     0.206074     5.642694    -0.748063
O     0.726662     6.305921    -1.256232
H     0.871161     7.103615    -0.698026
H     0.369317     7.009897     2.605452
O     0.004576     6.632720     1.787674
H     0.667241     5.962376     1.522169
H    -2.457947     0.189175     3.339472
O    -2.678842    -0.626676     3.841820
H    -1.916695    -0.668492     4.461660
H    -0.864074     0.516962     6.020507
O    -0.592961     0.000048     5.243351
H     0.120993    -0.605070     5.526394
H     0.723212    -5.018481     1.951337
O     0.183345    -5.130670     2.756930
H     0.327508    -6.052252     3.025436
H    -2.112469    -8.104552     0.416415
O    -1.787130    -7.619940     1.202466
H    -2.571786    -7.309209     1.661726
H    -0.367183     6.855676    -2.309409
O    -1.114749     7.277927    -2.805108
H    -1.903140     7.150381    -2.239524
H    -1.095236     4.292028     0.583005
O    -0.724960     4.355798    -0.314029
H    -1.433667     4.116802    -0.945117
H    -4.384604     2.722539     3.519780
O    -4.380330     2.889565     4.484885
H    -4.463167     2.005171     4.891191
H     2.041383    -3.618025     4.215968
O     1.976688    -4.097014     5.064822
H     2.492430    -3.566760     5.697926
H     4.700191    -3.217835     0.805455
O     4.535849    -3.140730    -0.159988
H     3.677621    -2.661528    -0.239554
H    -2.714722    -0.757538    -1.356263
O    -3.039373    -0.490619    -0.479897
H    -3.839925     0.036778    -0.682445
H    -1.618015    -0.759635    -4.638857
O    -1.112820    -0.541748    -5.443378
H    -0.401945     0.053452    -5.158015
H     1.796117    -1.721581    -3.397536
O     1.890927    -0.977278    -2.771910
H     1.113778    -0.398822    -2.898458
H     3.677481    -3.150012     2.519601
O     4.636670    -3.378417     2.445976
H     4.691332    -4.339655     2.565205
H     3.437498    -6.152797     3.081458
O     3.792813    -5.949090     2.182676
H     3.055625    -5.600742     1.641093
H    -3.341654     1.612260    -4.171868
O    -4.186432     1.141638    -3.980491
H    -4.401167     1.284198    -3.022690
H    -5.065959     4.135601     0.086232
O    -5.505607     3.270306    -0.019151
H    -6.436741     3.391382    -0.297578
H     6.742364    -1.200719    -1.394046
O     5.970100    -1.052472    -0.841903
H     5.552324    -1.920778    -0.645407
H     4.596444    -3.181766    -2.503983
O     3.727196    -3.008703    -2.916482
H     3.727843    -3.624366    -3.675066
H     4.364429    -2.371673     5.514703
O     4.055497    -2.828077     6.326631
H     4.467042    -3.704262     6.244391
H    -0.721182     6.303966     5.090265
O    -1.315950     6.878490     5.631927
H    -1.329652     7.757112     5.193684
H     4.706578    -0.152941    -1.489736
O     3.938754     0.391006    -1.748422
H     3.244901    -0.207829    -2.078546
H    -0.737423     4.521681    -4.028521
O    -1.520195     5.066119    -4.232657
H    -1.366885     5.931146    -3.807367
H     0.667356     3.195685    -2.657955
O     0.672321     3.575462    -3.565271
H     0.717241     2.813958    -4.153471
H    -5.371513    -5.211173     1.781732
O    -4.676457    -5.805461     1.422441
H    -3.834797    -5.391194     1.692144
H     7.880105    -1.701436    -4.071954
O     7.624908    -1.391305    -3.170701
H     7.138741    -0.546238    -3.322443
H     3.692920    -5.074514    -5.327789
O     4.457439    -4.704069    -4.847657
H     4.842456    -5.417382    -4.305457
H    -3.758106    -0.012093     4.936248
O    -4.356672     0.450507     5.571931
H    -5.016536    -0.207906     5.863739
H     3.468783    -5.960847    -0.560821
O     4.342913    -5.714951    -0.875839
H     4.419563    -4.752510    -0.731531
H     5.000303    -0.343475    -4.185567
O     4.463297    -1.053184    -4.576327
H     4.138609    -1.638276    -3.859314
H    -1.169975     1.570018    -3.937181
O    -1.821050     2.192450    -4.318841
H    -1.465618     2.526820    -5.164955
H     4.884869    -6.335868    -2.359054
O     5.213845    -6.659072    -3.226927
H     6.032651    -7.140321    -3.045112
H     8.738922    -5.106833    -2.971100
O     8.049517    -5.526956    -2.411982
H     8.082407    -6.483648    -2.518792
H     2.356196     4.698782     0.451871
O     1.779045     4.678796     1.224532
H     1.421065     3.758593     1.300274
H    -4.394089    -2.661285     4.225637
O    -5.288372    -2.320478     4.026615
H    -5.152310    -1.537271     3.453728
H    -5.833586    -3.211074     1.313732
O    -6.294963    -3.770080     1.981401
H    -6.103653    -3.337685     2.832945
H     1.721709     3.425959     6.860303
O     1.097754     3.944100     6.329954
H     0.316735     4.096021     6.904481
H     5.019203    -2.203762     3.583249
O     5.043498    -1.493395     4.257496
H     4.233115    -0.929533     4.103699
H     2.402759    -5.610532     4.801787
O     2.781929    -6.497145     4.538934
H     2.037679    -7.079721     4.366894
H     2.244796    -4.512363    -6.821729
O     2.077781    -5.003221    -6.007137
H     1.815407    -4.313802    -5.348777
H     6.445970    -4.125626    -0.544454
O     7.199081    -4.533861    -0.085937
H     7.703912    -4.952361    -0.810499
H    -1.686697     4.448531     7.712053
O    -0.786660     4.544565     8.095020
H    -0.604690     5.503392     8.122366
H    -5.117403     5.701184    -5.571283
O    -4.510572     4.937197    -5.596048
H    -3.754786     5.152890    -6.163493
H     3.265933    -2.519213    -8.464564
O     3.180271    -3.054488    -7.664773
H     4.058201    -3.032223    -7.238463
H    -0.646215     8.818651    -2.255585
O    -0.520895     9.645351    -1.734488
H     0.242812     9.468270    -1.160416
H     2.092513    -0.949077     5.194423
O     1.519165    -1.476447     5.779381
H     1.617349    -1.137270     6.678525
H     5.198889    -2.027176    -5.724609
O     5.542591    -2.792105    -6.250356
H     5.269697    -3.583414    -5.734499
H     5.600214    -5.421890     4.719976
O     5.106753    -5.399806     5.581506
H     4.359219    -6.002451     5.451282
H    -3.941101     1.109601     7.013139
O    -3.746226     1.582558     7.857846
H    -4.621122     1.968001     8.122639
H    -1.832408     9.602495    -0.716976
O    -2.691558     9.475253    -0.240434
H    -3.303351     10.105527    -0.624392
H    -5.940706     4.688843    -2.914738
O    -6.850489     4.571764    -3.256708
H    -6.762699     3.871497    -3.936309
H     0.096191    -7.077563    -1.177108
O     0.562231    -7.516425    -0.432177
H    -0.115522    -7.712893     0.217726
H    -7.627927     3.788900    -1.947846
O    -7.887718     3.199704    -1.209000
H    -7.746459     2.292029    -1.551963
H     4.007480    -0.940762     6.967482
O     4.009459     0.023226     6.947933
H     4.827539     0.316017     6.529609
H     2.272023     5.781194    -1.175881
O     3.207673     5.487358    -1.065625
H     3.381380     4.949677    -1.861074
H     6.562883    -5.950593     0.636773
O     6.198612    -6.682747     1.179381
H     5.288182    -6.413544     1.389427
H    -3.829725     4.690060     7.798801
O    -3.265766     4.229046     7.136304
H    -3.459240     3.285361     7.244567
H     5.769541    -7.964986     0.090891
O     5.479618    -8.649858    -0.547420
H     4.649356    -8.324232    -0.939830
H    -0.521253     1.999307     7.692482
O    -1.156963     1.938441     6.959065
H    -2.024168     1.795880     7.357944
H    -6.368340    -0.134982     1.071358
O    -6.691307    -0.215580     0.159133
H    -7.610341    -0.485185     0.179051
H    -5.365460    -3.072986    -0.592348
O    -5.110442    -2.373263     0.035013
H    -5.680341    -1.599151    -0.147935
H     4.335228     5.555761     0.317066
O     4.671984     5.653043     1.221546
H     3.979430     6.162371     1.677820
H    -9.040957    -1.744739    -2.241880
O    -8.490430    -1.546504    -1.456902
H    -8.616611    -2.285063    -0.821222
H    -5.526006     3.478601    -5.508926
O    -6.042737     2.766936    -5.095145
H    -5.375491     2.179551    -4.685227
H     3.174230    -0.889538    -5.676928
O     2.316777    -1.007356    -6.140554
H     2.400147    -1.854848    -6.617010
H     8.106563    -1.354793    -6.067003
O     8.115334    -2.220547    -5.613917
H     7.257812    -2.618509    -5.862969
H     7.614198     0.987091    -6.338678
O     7.423229     0.140322    -6.754156
H     6.441740     0.091447    -6.787564
H    -7.850329    -3.704225     0.931556
O    -8.530571    -3.594441     0.249440
H    -8.434934    -4.352043    -0.354915
H    -2.383707     8.718487     1.320138
O    -2.231267     8.127276     2.070721
H    -1.462208     7.574251     1.843877
H    -4.415949     6.411991     3.522387
O    -4.588386     6.840849     2.667720
H    -3.824911     7.426658     2.527830
H     3.404855     3.438277    -3.585260
O     3.252706     4.407365    -3.488357
H     2.287555     4.473280    -3.592652
H    -6.116298    -1.604296    -3.438688
O    -6.197391    -2.186202    -2.656487
H    -6.979508    -1.879900    -2.144390
H     6.497294     1.011817     4.716126
O     6.098824     1.547640     5.418387
H     6.290769     2.466981     5.133548
H     1.357125     1.723543    -5.830163
O     1.164136     1.125333    -5.077388
H     1.526129     0.262866    -5.351006
H    -2.444187     2.914698     10.491961
O    -2.234005     2.007755     10.215045
H    -2.833914     1.811246     9.483690
H     7.650364    -0.525146     3.042978
O     6.898775     0.046653     3.219516
H     6.209385    -0.554236     3.596406
H    -5.658201    -8.062630    -0.720375
O    -4.921296    -8.134098    -0.076566
H    -4.922955    -7.318620     0.448295
H    -5.180506    -0.114210    -4.709412
O    -5.798867    -0.824662    -4.949871
H    -6.637241    -0.381579    -5.143844
H     1.878338    -0.192138    -7.530517
O     1.674680     0.282562    -8.372332
H     2.249006    -0.121148    -9.028433
H     4.854056    -1.384259    -9.332419
O     3.928221    -1.153773    -9.611080
H     3.905133    -1.268129    -10.560476
H     7.729590    -2.344522     4.223222
O     7.920347    -2.600724     3.291830
H     7.247878    -3.268876     3.085607
H     6.595744    -5.938179     2.665740
O     6.647901    -5.286831     3.396205
H     7.562187    -5.364805     3.756361
H    -1.790624     8.921565     3.523024
O    -1.539954     9.223230     4.421538
H    -2.387220     9.354804     4.880114
H    -7.393166     1.576237    -5.232591
O    -7.967904     0.831778    -4.988300
H    -8.869028     1.231982    -4.908276
H     6.910863    -1.078969    -8.437875
O     6.327597    -1.798767    -8.702099
H     6.101780    -2.250982    -7.870857
H    -1.680449     6.249878    -7.005976
O    -2.078085     5.423974    -6.733969
H    -1.826987     5.289884    -5.771421
H     0.041987     3.265010     9.025245
O     0.238698     2.344153     9.276247
H    -0.557812     2.078855     9.784713
H     6.756412    -2.793977    -2.742694
O     6.226121    -3.539236    -2.403375
H     6.693531    -4.349318    -2.653819
H    -4.084369    -3.068782    -4.950514
O    -4.241111    -2.952934    -5.914536
H    -4.787970    -2.159309    -5.966572
H     2.019463     2.137211     8.457698
O     2.680371     2.250772     7.765046
H     3.101878     1.380469     7.646682
H    -6.906263    -5.206026    -1.401074
O    -7.822733    -5.474134    -1.644872
H    -7.958662    -5.068426    -2.526028
H    -3.794013     5.225433     5.716993
O    -3.762343     5.995651     5.128404
H    -2.827809     6.288870     5.220785
H    -7.879780     0.086355    -1.951422
O    -7.390503     0.810764    -2.364124
H    -7.621695     0.803085    -3.316682
H     5.850150     0.106429     0.385199
O     5.629564     0.826165     1.008677
H     6.143561     0.629910     1.818917
H    -6.179004     3.277616     7.416648
O    -6.049293     2.756620     8.243253
H    -6.650447     1.996105     8.154322
H     2.277845    -8.089448    -0.885176
O     2.954935    -8.076279    -1.581363
H     2.727067    -8.786961    -2.197345
H    -2.756186    -3.954826    -6.210733
O    -2.002414    -4.522577    -5.983024
H    -1.723171    -4.234037    -5.085785
H    -5.613134     3.734118     5.329668
O    -6.260278     4.129316     5.949803
H    -6.095399     5.073173     5.939422
H    -1.024257    -7.119397    -3.191752
O    -0.549184    -6.452030    -2.662841
H     0.356818    -6.381944    -3.046881
H     4.472596     1.978862     5.114012
O     3.530231     2.218429     4.996789
H     3.149168     2.232757     5.880186
H     4.144306     4.616220     6.295647
O     4.223521     5.348354     5.679672
H     3.653473     5.110619     4.909848
H     2.791090     3.585448     3.918205
O     2.613950     4.526259     3.755507
H     2.491689     4.628082     2.789861
H     9.401533     0.190237    -1.107455
O     8.596820     0.351672    -0.611446
H     8.422130    -0.469985    -0.121411
H    -2.052806     5.272717     10.665809
O    -2.775064     4.644435     10.897174
H    -2.989963     4.818462     11.813781
H     7.983689    -3.030386     0.274885
O     8.408603    -2.185547     0.525617
H     8.345019    -2.186956     1.490617
H     5.395391     3.632188     3.512648
O     6.054581     3.895552     4.176500
H     5.644129     4.611404     4.683042
H    -4.163754     4.979940     9.805204
O    -4.799016     5.133645     9.085629
H    -5.411433     4.385492     9.082793
H    -7.013931    -3.475402    -3.484457
O    -7.636359    -4.085281    -3.932935
H    -7.117892    -4.525579    -4.638120
H     0.076687     6.078195     10.782381
O    -0.788171     6.411563     10.538694
H    -0.674333     6.844679     9.673414
H     2.589321     1.490258    -4.116896
O     3.468937     1.841089    -3.880106
H     3.790824     1.323673    -3.111769
H    -6.940506    -0.249783     7.231242
O    -7.447584     0.528285     7.515485
H    -8.072590     0.714572     6.813771
H    -2.744801    -9.883827    -0.862215
O    -2.680920    -8.941763    -1.019241
H    -3.585772    -8.574987    -0.774709
H    -10.069263     3.086588    -4.866572
O    -10.186454     2.168355    -4.588411
H    -10.399179     2.249655    -3.637740
H    -2.046302    -3.052466     4.601955
O    -2.921502    -3.492052     4.672716
H    -2.918354    -4.107453     3.914587
H    -0.168320    -8.005982     2.453003
O     0.660349    -7.798356     2.897975
H     1.375562    -8.093302     2.307041
H     7.283603    -2.806724     6.418641
O     7.349730    -1.987063     5.900684
H     6.434864    -1.706415     5.770063
H    -5.242787    -2.035145     6.944635
O    -5.920145    -1.535002     6.464260
H    -5.907036    -1.909188     5.553920
H     0.828733     3.038830    -7.115927
O     1.745819     2.707205    -7.176070
H     1.729194     1.961686    -7.804181
H    -3.914688     8.724276     6.704192
O    -3.915976     8.725028     5.746813
H    -4.042776     7.798364     5.476740
H    -2.046383     10.309378    -2.706523
O    -2.948785     10.492759    -3.005029
H    -2.878676     11.128875    -3.716163
H     9.088512    -4.105429     4.202950
O     9.071470    -5.005234     4.570660
H     8.711516    -4.897060     5.466200
H    -0.747702    -5.993834    -5.865905
O    -0.043715    -6.562011    -5.536292
H     0.791524    -6.100659    -5.755427
H     1.846984     8.255575     0.676800
O     1.541271     8.580499    -0.198839
H     2.354336     8.619337    -0.731707
H     3.492027     2.931536    -6.672319
O     4.320594     2.638935    -6.266726
H     4.078010     2.362929    -5.357786
H     3.747771     7.109281    -1.227144
O     3.953875     8.045439    -1.438483
H     4.320231     7.991657    -2.333107
H     4.381744    -0.002601    -7.933961
O     4.761772     0.140412    -7.065295
H     4.581838     1.071785    -6.818112
H     6.041975     1.912698    -0.496734
O     6.605135     2.107315    -1.259777
H     7.429816     1.626075    -1.069455
H     6.682820    -8.448947    -1.661074
O     7.316080    -8.237400    -2.399294
H     7.679093    -9.071289    -2.692856
H    -5.312965    -5.781028    -5.418452
O    -5.930352    -5.107419    -5.729300
H    -5.379122    -4.339020    -5.965277
H     0.724117     7.133149     7.613468
O    -0.176324     7.160857     7.975745
H    -0.734319     7.178460     7.160089
H    -8.902099    -2.826534    -4.092772
O    -9.421157    -2.018002    -3.921146
H    -9.136371    -1.351437    -4.550071
H    -2.411907    -5.994627    -2.163770
O    -3.290489    -5.706457    -2.428874
H    -3.480895    -6.078039    -3.315225
H    -2.998393    -5.894952    -5.427803
O    -3.597320    -6.505674    -4.955549
H    -3.115767    -7.326992    -4.793150
H    -1.397017     3.735128    -6.975188
O    -0.856706     2.977857    -6.708622
H    -1.096431     2.194752    -7.260155
H    -0.218029     0.428299    -8.222626
O    -1.112950     0.663528    -7.935704
H    -1.286144     0.137687    -7.138809
H    -10.416154     4.057721    -2.697975
O    -10.482652     3.277256    -2.132213
H    -9.651725     3.248376    -1.625985
H     4.600258     4.054709     1.711179
O     4.391731     3.132735     1.986121
H     5.107017     2.557770     1.701547
H     6.485012     1.388985    -4.243756
O     6.183413     0.762981    -3.550939
H     6.217590     1.255699    -2.705544
H     9.638306    -2.246916    -0.975074
O     9.912945    -2.034122    -1.876450
H     9.111955    -1.690983    -2.315144
H     9.966719    -3.337653    -3.148002
O     9.697525    -3.987724    -3.824368
H     9.301886    -3.477521    -4.541738
H    -7.701797    -8.576450    -1.678585
O    -6.963735    -7.982469    -1.807340
H    -7.340453    -7.069065    -1.793399
H     4.165934     6.073327    -3.822977
O     4.827993     6.773678    -3.738160
H     5.664167     6.318542    -3.604430
H     0.084356    -8.169552    -5.250268
O     0.108044    -9.152894    -5.121353
H     0.254730    -9.514227    -5.995573
H    -2.339443    -8.677896    -2.744936
O    -2.107700    -8.411377    -3.654246
H    -1.463121    -9.029660    -4.016925
H     2.172677    -10.823131    -3.545033
O     2.127841    -9.868622    -3.517420
H     1.341168    -9.595331    -4.040568
H     6.835859     3.322286    -4.593846
O     6.891168     2.646307    -5.297110
H     6.096117     2.781937    -5.834837
H    -3.533472    -3.757976     7.711943
O    -3.649736    -2.968921     7.184171
H    -3.400824    -3.205292     6.264592
H    -0.651265    -3.355601    -6.741789
O    -0.020073    -2.624998    -6.748799
H    -0.499821    -1.849946    -6.403356
H     0.681123     0.416260     8.743839
O     0.684295    -0.294609     8.099021
H    -0.238254    -0.583176     8.015344
H    -5.828837     7.372827    -4.218668
O    -6.334111     6.756246    -4.780110
H    -6.619991     6.023761    -4.190306
H    -4.268734     9.103273    -3.229754
O    -4.804804     8.307261    -3.124390
H    -4.394606     7.825074    -2.388194
H    -9.709127     5.807170    -4.606198
O    -10.242739     5.002458    -4.443652
H    -11.124179     5.205260    -4.758904
H     2.805037     6.477908     6.144055
O     1.845263     6.575224     6.244723
H     1.500642     5.662375     6.141019
H     4.823372     8.526885     0.087746
O     5.143736     8.524654     1.007622
H     5.550089     7.659513     1.134773
H     4.132796    -7.432173    -4.387433
O     3.372857    -7.714456    -4.928353
H     3.092679    -8.556286    -4.554111
H     0.409820     8.630773     4.252212
O     1.086154     7.986243     4.019815
H     1.314839     7.490563     4.832226
H     5.240568     4.180835    -3.169280
O     6.202151     4.149444    -3.119927
H     6.412816     3.565651    -2.374356
H    -2.545667    -1.581062     7.567856
O    -2.034024    -0.788772     7.787895
H    -2.657474    -0.163305     8.167161
H    -9.021757     7.944871    -4.101920
O    -8.961467     7.362523    -4.860664
H    -8.004943     7.198048    -4.999312
H     3.534784    -9.003111     1.041649
O     2.860290    -8.371399     1.296338
H     3.336763    -7.566737     1.575202
H     3.608986     8.147454     1.835820
O     2.818203     7.584454     1.948536
H     2.374881     7.817748     2.776935
N     7.360125    -4.696701     6.938660
H     7.518650    -5.021249     7.829157
H     6.533317    -5.131877     6.633676
