603

H     0.212667     3.027622    -0.680033
O     0.738905     2.360916    -1.172047
H     1.676452     2.492250    -0.895432
H    -0.061113    -1.309764     3.150558
O     0.330391    -0.608751     2.606755
H    -0.150016     0.203529     2.838819
H    -2.385041     2.400397    -0.543162
O    -2.174155     1.930421     0.281056
H    -2.188855     0.982449     0.056435
H    -4.650625     0.531593     2.169779
O    -4.965079    -0.402625     2.182562
H    -4.458028    -0.879193     1.517104
H     0.081161    -0.311944     0.951612
O    -0.112789    -0.076467     0.023615
H     0.222185     0.821996    -0.095217
H    -0.134975    -3.580335     3.778598
O    -0.416564    -2.750310     4.197398
H     0.226836    -2.578015     4.901255
H    -4.877543     2.514377     1.316649
O    -4.238326     2.106742     1.932971
H    -3.394351     2.091358     1.422354
H    -3.235228     3.885231    -2.221391
O    -2.496545     3.290141    -1.988796
H    -2.135361     3.003390    -2.847576
H    -0.098242    -3.809039     0.504727
O     0.239761    -2.989822     0.921276
H    -0.549330    -2.505382     1.232044
H    -2.360728    -1.547964     2.463673
O    -2.167725    -2.013327     1.623244
H    -2.426999    -1.427497     0.893068
H     2.096886    -1.442212    -1.115996
O     2.328677    -1.695138    -0.198930
H     1.539406    -2.123455     0.184479
H    -1.381791     1.818009     1.907280
O    -1.474010     1.419979     2.783066
H    -1.463554     2.132338     3.448160
H     0.236529    -2.707104    -1.567798
O    -0.518824    -2.095818    -1.627300
H    -0.343827    -1.369799    -0.991755
H    -3.409930    -2.939135    -0.399728
O    -2.689568    -3.428405    -0.818557
H    -1.981238    -2.795206    -1.034667
H     2.783291     0.133267     2.939588
O     2.881309    -0.049099     3.901309
H     2.968932     0.844056     4.306363
H    -3.526464     6.367117    -0.554152
O    -3.287944     7.030049    -1.254016
H    -3.149819     7.875745    -0.783668
H     3.916037     0.590696     1.194196
O     2.965728     0.406271     1.307523
H     2.731943    -0.347042     0.728164
H    -5.761379     0.823114    -1.619485
O    -4.852057     1.152968    -1.491330
H    -4.966603     1.981304    -0.980312
H    -1.213092     5.390904     2.204951
O    -1.835330     4.641746     2.086673
H    -1.914582     4.223327     2.949193
H     3.503375     2.769068     0.431856
O     3.257903     2.724712    -0.507987
H     3.593604     1.882810    -0.856752
H     1.524114    -4.697668    -2.242542
O     1.587095    -3.918367    -1.673039
H     2.381853    -3.456626    -2.021817
H    -0.897350    -0.091605    -2.551626
O    -0.262605     0.561207    -2.874095
H    -0.006538     1.145253    -2.136869
H     1.729661    -4.684664    -0.172970
O     1.840139    -5.322365     0.567952
H     1.376123    -6.134140     0.272531
H    -1.194189    -3.273652    -2.883791
O    -1.013604    -3.955825    -3.543829
H    -0.892234    -4.803315    -3.074513
H    -2.782200     3.298966     4.696040
O    -1.800832     3.298761     4.664247
H    -1.509052     2.898144     5.501438
H     0.957101     5.034434     4.075994
O     0.010292     5.264042     4.125443
H    -0.460198     4.459797     4.382763
H    -1.698903    -4.659291    -0.374381
O    -0.932376    -5.196230    -0.086093
H    -1.279399    -5.886491     0.488560
H    -3.909076     5.817657    -2.609831
O    -4.256299     4.982349    -2.940315
H    -4.099456     4.948059    -3.908202
H    -2.407057    -3.698823     1.930488
O    -2.424030    -4.602827     2.306708
H    -1.484140    -4.838827     2.449220
H    -4.662304    -2.996168    -2.910366
O    -3.808147    -3.226732    -3.314387
H    -3.477572    -4.020570    -2.848780
H     0.342988     1.375411     4.614234
O     0.848216     2.136493     4.281439
H     0.893126     2.796006     4.988090
H    -4.619870    -5.186873    -1.581726
O    -5.323452    -4.834360    -1.009492
H    -5.111854    -5.188684    -0.124899
H     2.391734    -6.533249    -3.945452
O     2.045669    -6.200094    -3.106915
H     2.445674    -6.804501    -2.441524
H     0.505654    -3.389542    -4.004269
O     1.310496    -3.029026    -4.430729
H     0.987392    -2.649821    -5.274656
H     1.979775    -1.750887     2.986236
O     2.138575    -2.681130     2.768616
H     1.454009    -2.896892     2.100896
H    -2.984701    -1.821249    -3.217548
O    -2.564130    -0.933814    -3.153572
H    -3.221374    -0.289818    -3.473152
H    -3.188044     4.963860     1.070036
O    -3.969605     5.335130     0.613544
H    -4.387967     5.892032     1.318647
H     0.881785     2.252844     2.591352
O     0.985153     2.248043     1.620336
H     1.714312     1.626944     1.458296
H     0.195217     5.653530    -0.760271
O     0.716373     6.316446    -1.268255
H     0.854924     7.116984    -0.712563
H     0.336405     7.034019     2.588662
O    -0.022647     6.652351     1.770460
H     0.643726     5.983409     1.510969
H    -2.470397     0.205846     3.334129
O    -2.690835    -0.608900     3.838440
H    -1.931867    -0.645939     4.462194
H    -0.891469     0.549469     6.021905
O    -0.614021     0.030686     5.248182
H     0.100082    -0.571004     5.536943
H     0.736801    -4.995894     1.982235
O     0.193522    -5.106300     2.785706
H     0.338963    -6.026836     3.057843
H    -2.079558    -8.098250     0.443136
O    -1.760849    -7.607555     1.228357
H    -2.549461    -7.300272     1.683050
H    -0.374465     6.858473    -2.329145
O    -1.120937     7.275971    -2.830296
H    -1.911795     7.148089    -2.268179
H    -1.107956     4.303265     0.569158
O    -0.733268     4.364632    -0.326232
H    -1.438172     4.121117    -0.959887
H    -4.406912     2.732901     3.495175
O    -4.407729     2.903524     4.459673
H    -4.489887     2.020385     4.868867
H     2.041807    -3.579648     4.248752
O     1.978050    -4.052345     5.101651
H     2.481172    -3.513733     5.733782
H     4.711773    -3.187695     0.849225
O     4.553621    -3.113369    -0.118024
H     3.693842    -2.637589    -0.202983
H    -2.699778    -0.759492    -1.359523
O    -3.029342    -0.489846    -0.485912
H    -3.831301     0.033227    -0.694271
H    -1.586627    -0.770392    -4.637108
O    -1.075372    -0.555582    -5.438870
H    -0.371026     0.046322    -5.151655
H     1.823699    -1.716632    -3.374973
O     1.913515    -0.969154    -2.753528
H     1.133988    -0.394227    -2.883792
H     3.683486    -3.115453     2.558320
O     4.643233    -3.342396     2.486218
H     4.699933    -4.302096     2.615497
H     3.453664    -6.115727     3.131810
O     3.811057    -5.914036     2.232183
H     3.073251    -5.570764     1.688060
H    -3.321103     1.598010    -4.186370
O    -4.164633     1.124530    -3.997555
H    -4.385303     1.269963    -3.041450
H    -5.075870     4.130730     0.052775
O    -5.511575     3.263357    -0.051560
H    -6.441851     3.379806    -0.335129
H     6.758811    -1.169319    -1.346794
O     5.983332    -1.022318    -0.798880
H     5.566955    -1.891166    -0.601120
H     4.626347    -3.159767    -2.458697
O     3.758967    -2.991782    -2.877347
H     3.766873    -3.609420    -3.632828
H     4.446281    -2.284747     5.631130
O     4.102860    -2.750844     6.423631
H     4.440140    -3.655082     6.343223
H    -0.764269     6.333560     5.070549
O    -1.363631     6.907895     5.607183
H    -1.378509     7.784831     5.165477
H     4.719771    -0.128949    -1.456569
O     3.951688     0.410928    -1.722482
H     3.261266    -0.191619    -2.052549
H    -0.727318     4.517200    -4.041035
O    -1.511073     5.057680    -4.251436
H    -1.363533     5.924919    -3.828523
H     0.674936     3.201251    -2.658357
O     0.683723     3.577524    -3.567150
H     0.733332     2.813978    -4.152226
H    -5.356704    -5.210680     1.782503
O    -4.657623    -5.803270     1.428562
H    -3.818770    -5.385640     1.701446
H     7.913004    -1.674798    -4.016609
O     7.651085    -1.362961    -3.117906
H     7.162944    -0.519872    -3.275352
H     3.766858    -5.020311    -5.244519
O     4.532809    -4.672804    -4.749880
H     4.911320    -5.376079    -4.191395
H    -3.778003     0.005841     4.925063
O    -4.381017     0.468722     5.556232
H    -5.040262    -0.190882     5.847001
H     3.499261    -5.937593    -0.510291
O     4.368028    -5.687950    -0.837589
H     4.444996    -4.726495    -0.687118
H     5.028281    -0.326750    -4.151814
O     4.496756    -1.041226    -4.541837
H     4.170037    -1.622697    -3.822958
H    -1.149485     1.564065    -3.940932
O    -1.800825     2.182369    -4.328500
H    -1.442418     2.515434    -5.173827
H     4.918079    -6.317975    -2.305983
O     5.256363    -6.643956    -3.170539
H     6.077349    -7.119413    -2.979362
H     8.776428    -5.075201    -2.899539
O     8.082470    -5.495128    -2.345810
H     8.123439    -6.452559    -2.444758
H     2.342473     4.721782     0.453999
O     1.761743     4.702524     1.223978
H     1.406333     3.781449     1.301252
H    -4.400617    -2.648393     4.221348
O    -5.294977    -2.311148     4.016934
H    -5.158927    -1.529881     3.441462
H    -5.823379    -3.213918     1.304481
O    -6.286327    -3.771743     1.971905
H    -6.100941    -3.335730     2.822814
H     1.679647     3.471333     6.863916
O     1.056589     3.984950     6.328347
H     0.272009     4.136450     6.898278
H     5.015997    -2.159072     3.626187
O     5.033400    -1.440581     4.289987
H     4.220213    -0.886498     4.131906
H     2.412101    -5.573167     4.843873
O     2.795100    -6.455880     4.584256
H     2.051867    -7.039639     4.409754
H     2.301920    -4.390435    -6.755584
O     2.152480    -4.911736    -5.950417
H     1.893035    -4.215167    -5.284357
H     6.468215    -4.090887    -0.489249
O     7.221538    -4.492749    -0.025313
H     7.731493    -4.914127    -0.744841
H    -1.736402     4.484246     7.694660
O    -0.838457     4.584913     8.081604
H    -0.660324     5.544588     8.106394
H    -5.103949     5.674811    -5.610498
O    -4.493864     4.913157    -5.629220
H    -3.736417     5.129423    -6.194142
H     3.321684    -2.529530    -8.429560
O     3.240945    -3.065906    -7.629639
H     4.116321    -3.024787    -7.197713
H    -0.660551     8.820773    -2.284281
O    -0.540819     9.649751    -1.765598
H     0.220540     9.477642    -1.186971
H     2.074589    -0.909169     5.215625
O     1.502147    -1.436904     5.801639
H     1.592371    -1.090869     6.698980
H     5.240465    -2.012309    -5.683037
O     5.586397    -2.778208    -6.206574
H     5.324523    -3.567774    -5.683857
H     5.715574    -5.203133     4.698732
O     5.191565    -5.118793     5.524178
H     4.471954    -5.752902     5.438148
H    -3.975412     1.134666     6.996852
O    -3.786238     1.611499     7.840727
H    -4.663958     1.994867     8.099603
H    -1.857563     9.606186    -0.754605
O    -2.718598     9.477495    -0.281943
H    -3.330711     10.104232    -0.671172
H    -5.937135     4.669506    -2.954399
O    -6.844684     4.548064    -3.300598
H    -6.751171     3.845564    -3.977096
H     0.133902    -7.069902    -1.138168
O     0.599535    -7.499834    -0.387313
H    -0.081608    -7.701990     0.257071
H    -7.626182     3.767153    -1.992701
O    -7.887082     3.179803    -1.252814
H    -7.741353     2.271312    -1.591788
H     3.977596    -0.883759     6.994452
O     3.983634     0.080398     6.984342
H     4.796394     0.372175     6.554921
H     2.262782     5.797791    -1.178024
O     3.198956     5.507501    -1.062046
H     3.378484     4.967647    -1.854635
H     6.580583    -5.916998     0.687435
O     6.211782    -6.655261     1.218070
H     5.307466    -6.379181     1.447346
H    -3.880650     4.718612     7.769475
O    -3.311332     4.257042     7.111872
H    -3.502661     3.313180     7.222318
H     5.799318    -7.935316     0.150896
O     5.516184    -8.621173    -0.490236
H     4.682537    -8.302078    -0.880005
H    -0.562686     2.039684     7.690208
O    -1.194093     1.973002     6.953729
H    -2.063087     1.829416     7.348515
H    -6.368238    -0.141089     1.047747
O    -6.685781    -0.225807     0.134058
H    -7.603816    -0.499183     0.149781
H    -5.345789    -3.082177    -0.599116
O    -5.096142    -2.378263     0.025894
H    -5.668526    -1.607482    -0.163101
H     4.319064     5.585419     0.326088
O     4.650992     5.686975     1.231905
H     3.954442     6.195830     1.682704
H    -9.017693    -1.772592    -2.273008
O    -8.471590    -1.569545    -1.486119
H    -8.598619    -2.306187    -0.848271
H    -5.504804     3.451313    -5.541986
O    -6.021059     2.739346    -5.128172
H    -5.354065     2.155803    -4.712616
H     3.212203    -0.886559    -5.649031
O     2.357299    -1.010996    -6.115790
H     2.445409    -1.858944    -6.588885
H     8.148243    -1.333975    -6.012508
O     8.157204    -2.198175    -5.556284
H     7.303290    -2.600107    -5.809386
H     7.648433     1.003592    -6.295837
O     7.461771     0.154475    -6.708514
H     6.480722     0.102842    -6.747044
H    -7.836576    -3.715989     0.913717
O    -8.513435    -3.610645     0.227599
H    -8.412338    -4.370326    -0.373397
H    -2.416181     8.727827     1.283017
O    -2.265287     8.139977     2.036575
H    -1.493183     7.588916     1.815567
H    -4.451401     6.422305     3.483618
O    -4.620822     6.847239     2.626416
H    -3.858863     7.435413     2.488301
H     3.416325     3.449701    -3.572972
O     3.260357     4.418482    -3.480748
H     2.295436     4.480756    -3.589768
H    -6.088070    -1.625907    -3.455464
O    -6.170017    -2.204829    -2.671266
H    -6.956469    -1.900490    -2.164525
H     6.472001     1.064875     4.751455
O     6.074990     1.602681     5.453374
H     6.260860     2.521869     5.162510
H     1.385964     1.720177    -5.821792
O     1.191332     1.123953    -5.067712
H     1.557426     0.261886    -5.335781
H    -2.502582     2.958192     10.476411
O    -2.287264     2.051121     10.203752
H    -2.883113     1.849535     9.470396
H     7.638969    -0.481033     3.099002
O     6.886892     0.092811     3.264771
H     6.195381    -0.508714     3.643884
H    -5.620279    -8.073233    -0.710048
O    -4.886256    -8.138878    -0.062434
H    -4.894262    -7.321689     0.459453
H    -5.151072    -0.137017    -4.727153
O    -5.765237    -0.850694    -4.968540
H    -6.604531    -0.411761    -5.168017
H     1.922728    -0.200417    -7.512109
O     1.721812     0.269113    -8.357016
H     2.300773    -0.135021    -9.008740
H     4.910517    -1.391126    -9.294621
O     3.983689    -1.169942    -9.577500
H     3.967627    -1.280115    -10.527587
H     7.578660    -2.552918     4.215474
O     7.727156    -2.589417     3.256214
H     7.236447    -3.381942     2.984511
H     6.747815    -5.881477     2.701055
O     6.805687    -5.204482     3.400328
H     7.680538    -5.286448     3.821325
H    -1.834912     8.941332     3.488109
O    -1.589715     9.246992     4.386791
H    -2.439734     9.377581     4.840555
H    -7.366912     1.543179    -5.268027
O    -7.939874     0.797495    -5.023481
H    -8.843016     1.194453    -4.949749
H     6.963127    -1.069905    -8.392367
O     6.383728    -1.793098    -8.655803
H     6.156830    -2.242582    -7.823678
H    -1.661920     6.230376    -7.030171
O    -2.056853     5.403522    -6.757112
H    -1.810921     5.274698    -5.792564
H    -0.010343     3.311970     9.020827
O     0.188599     2.392819     9.276673
H    -0.610100     2.126856     9.781655
H     6.785367    -2.766194    -2.690108
O     6.255810    -3.513016    -2.352932
H     6.731311    -4.321350    -2.594067
H    -4.045677    -3.087697    -4.950284
O    -4.196984    -2.975416    -5.915745
H    -4.746581    -2.184165    -5.974124
H     1.972993     2.189850     8.467504
O     2.637956     2.303367     7.778656
H     3.062559     1.434102     7.664887
H    -6.875293    -5.222897    -1.408312
O    -7.789926    -5.494202    -1.655122
H    -7.922843    -5.093188    -2.538805
H    -3.836456     5.246178     5.685860
O    -3.804362     6.014202     5.094476
H    -2.871457     6.311240     5.190598
H    -7.864630     0.063667    -1.983594
O    -7.375766     0.788313    -2.396465
H    -7.602354     0.776307    -3.350112
H     5.852954     0.141453     0.423549
O     5.627987     0.863040     1.043019
H     6.136613     0.669816     1.857525
H    -6.222886     3.296122     7.380944
O    -6.095245     2.778620     8.210066
H    -6.693453     2.015753     8.121010
H     2.322382    -8.067218    -0.824542
O     2.991120    -8.059926    -1.529207
H     2.754327    -8.784361    -2.125915
H    -2.717128    -3.962753    -6.204929
O    -1.956294    -4.519603    -5.973854
H    -1.687621    -4.233478    -5.072420
H    -5.648150     3.746997     5.294900
O    -6.299491     4.142134     5.910587
H    -6.138547     5.086622     5.896938
H    -0.984813    -7.124320    -3.138388
O    -0.509673    -6.449321    -2.616699
H     0.389201    -6.376946    -3.010096
H     4.444875     2.027130     5.137009
O     3.502925     2.263878     5.014493
H     3.116585     2.279867     5.895523
H     4.100473     4.667745     6.307137
O     4.181570     5.397326     5.688421
H     3.615628     5.155318     4.916783
H     2.763459     3.623288     3.926437
O     2.584340     4.562897     3.759452
H     2.466193     4.660643     2.792809
H     9.412733     0.231697    -1.051070
O     8.603199     0.391066    -0.562249
H     8.429826    -0.426926    -0.066950
H    -2.120669     5.318335     10.643308
O    -2.841455     4.687964     10.873453
H    -3.062419     4.865304     11.787987
H     7.996596    -2.992646     0.345856
O     8.414723    -2.144606     0.600695
H     8.347208    -2.138873     1.562960
H     5.369953     3.677431     3.534218
O     6.024589     3.944742     4.201161
H     5.609133     4.661699     4.702264
H    -4.226163     5.014625     9.773119
O    -4.857979     5.163422     9.049537
H    -5.468061     4.413348     9.046404
H    -6.978209    -3.500919    -3.498634
O    -7.596586    -4.113978    -3.948062
H    -7.073235    -4.556086    -4.648467
H     0.005625     6.132420     10.767425
O    -0.859357     6.461241     10.518130
H    -0.742960     6.891731     9.651881
H     2.609941     1.497512    -4.100708
O     3.487903     1.851015    -3.861848
H     3.807016     1.338697    -3.089040
H    -6.970960    -0.234637     7.204903
O    -7.481877     0.542944     7.483526
H    -8.104393     0.723999     6.778231
H    -2.696434    -9.883452    -0.836058
O    -2.637606    -8.941029    -0.993499
H    -3.545059    -8.579029    -0.753701
H    -10.050104     3.045197    -4.921146
O    -10.165027     2.127535    -4.640190
H    -10.383285     2.211394    -3.691020
H    -2.053497    -3.029598     4.610952
O    -2.927298    -3.471947     4.679177
H    -2.918226    -4.090332     3.923370
H    -0.147321    -7.984898     2.489972
O     0.678320    -7.771305     2.937815
H     1.397394    -8.066800     2.351839
H     6.715823    -2.358024     6.407021
O     7.167291    -3.066955     5.944143
H     6.539204    -3.803416     5.906114
H    -5.265345    -2.015043     6.933667
O    -5.941719    -1.518758     6.447993
H    -5.923045    -1.896508     5.539183
H     0.859480     3.028609    -7.114735
O     1.777854     2.699106    -7.168764
H     1.766609     1.952383    -7.795283
H    -3.974835     8.748401     6.659147
O    -3.970424     8.745467     5.701791
H    -4.093127     7.817465     5.434517
H    -2.063668     10.304870    -2.747953
O    -2.965272     10.483600    -3.051582
H    -2.894181     11.117604    -3.764502
H     9.429239    -4.038352     4.065928
O     9.148716    -4.717253     4.687295
H     8.717452    -4.245871     5.411049
H    -0.803514    -5.871541    -5.912225
O    -0.093288    -6.449609    -5.601142
H     0.724792    -5.934321    -5.747480
H     1.819541     8.277569     0.663022
O     1.517192     8.597838    -0.215440
H     2.332832     8.637969    -0.744236
H     3.521243     2.931834    -6.657593
O     4.348409     2.642006    -6.247116
H     4.102224     2.370169    -5.337900
H     3.734126     7.130915    -1.227010
O     3.938095     8.066951    -1.440672
H     4.309001     8.011409    -2.333290
H     4.427300    -0.002293    -7.904606
O     4.800940     0.142932    -7.033561
H     4.617983     1.074950    -6.790128
H     6.042982     1.945284    -0.464987
O     6.608679     2.138261    -1.226576
H     7.434530     1.661898    -1.030278
H     6.723279    -8.418863    -1.592721
O     7.355758    -8.206034    -2.332197
H     7.732603    -9.038045    -2.613557
H    -5.259757    -5.809053    -5.415045
O    -5.877555    -5.137791    -5.730111
H    -5.328151    -4.368924    -5.967809
H     0.665175     7.177511     7.597929
O    -0.237128     7.202838     7.955619
H    -0.791113     7.215680     7.137096
H    -8.866128    -2.860959    -4.118794
O    -9.388298    -2.053232    -3.952798
H    -9.103068    -1.388612    -4.583550
H    -2.377294    -5.998684    -2.141700
O    -3.252968    -5.711594    -2.417123
H    -3.436146    -6.090622    -3.302117
H    -2.947264    -5.914256    -5.415231
O    -3.541639    -6.523799    -4.938125
H    -3.057204    -7.344299    -4.779353
H    -1.368609     3.717623    -6.987711
O    -0.827107     2.962778    -6.716345
H    -1.062549     2.177237    -7.266014
H    -0.173195     0.409425    -8.217333
O    -1.070137     0.642256    -7.935257
H    -1.245518     0.118728    -7.137310
H    -10.411405     4.023143    -2.758043
O    -10.477905     3.244578    -2.189668
H    -9.649659     3.220678    -1.678922
H     4.582361     4.090556     1.726973
O     4.375788     3.168829     2.004516
H     5.094491     2.595187     1.726016
H     6.506840     1.409200    -4.207944
O     6.203982     0.784029    -3.514668
H     6.231622     1.279962    -2.670868
H     9.657114    -2.205438    -0.908582
O     9.934238    -1.992849    -1.808650
H     9.134453    -1.654337    -2.253091
H     10.000409    -3.301982    -3.076050
O     9.734918    -3.954675    -3.751089
H     9.343781    -3.447579    -4.473033
H    -7.655986    -8.598345    -1.679808
O    -6.920242    -8.000562    -1.803963
H    -7.301537    -7.089277    -1.795123
H     4.169168     6.086702    -3.816750
O     4.828356     6.789607    -3.731083
H     5.665521     6.338130    -3.591465
H     0.060370    -8.098583    -5.152042
O     0.234460    -9.066489    -5.047379
H     0.713185    -9.242178    -5.877014
H    -2.281557    -8.688931    -2.722703
O    -2.034133    -8.412719    -3.625120
H    -1.410828    -9.045105    -3.996184
H     2.337306    -10.721703    -3.564443
O     2.193219    -9.782304    -3.446194
H     1.389697    -9.514749    -3.980608
H     6.853071     3.341836    -4.563490
O     6.913697     2.663022    -5.263649
H     6.121338     2.794942    -5.806259
H    -3.554796    -3.729178     7.715582
O    -3.669328    -2.941851     7.184872
H    -3.415934    -3.180980     6.267185
H    -0.605809    -3.367501    -6.722907
O     0.030164    -2.640396    -6.730321
H    -0.449925    -1.862356    -6.391758
H     0.639212     0.465467     8.753095
O     0.649653    -0.249636     8.112894
H    -0.271753    -0.540821     8.023877
H    -5.828020     7.349030    -4.268218
O    -6.327910     6.728322    -4.829899
H    -6.614667     5.997339    -4.238664
H    -4.279160     9.088817    -3.277813
O    -4.812674     8.291106    -3.172329
H    -4.404785     7.813376    -2.432005
H    -9.701000     5.768000    -4.669298
O    -10.232426     4.961971    -4.506274
H    -11.113004     5.160237    -4.826809
H     2.756090     6.524260     6.141367
O     1.795564     6.618232     6.237111
H     1.454527     5.703916     6.134899
H     4.798012     8.557374     0.088087
O     5.113661     8.559532     1.009594
H     5.522543     7.696384     1.141891
H     4.317772    -7.493599    -4.341098
O     3.557607    -7.834781    -4.849643
H     3.269580    -8.622109    -4.342043
H     0.362772     8.661205     4.229259
O     1.042592     8.018173     4.002851
H     1.268739     7.526503     4.818325
H     5.247158     4.200967    -3.150124
O     6.208599     4.171887    -3.096537
H     6.417442     3.592509    -2.347099
H    -2.572851    -1.548822     7.568664
O    -2.064990    -0.754006     7.788781
H    -2.693017    -0.129317     8.161867
H    -9.023592     7.910177    -4.169694
O    -8.957328     7.325057    -4.925798
H    -7.999605     7.163634    -5.059186
H     3.565550    -8.975500     1.106774
O     2.888493    -8.340421     1.345465
H     3.361447    -7.536026     1.630673
H     3.575992     8.180179     1.831332
O     2.786951     7.614394     1.942302
H     2.338190     7.849558     2.767247
N     2.080745    -8.688848    -7.133601
H     2.747534    -8.300409    -6.537895
H     1.686873    -7.925915    -7.569497
