33
Coordinates from ORCA-job grain_mol_opt.QMRegion
  H   1.82010756374243      3.51539218424679      6.75319394672239
  O   1.21923411671289      4.04096188490398      6.19874570920947
  H   0.40126366807787      4.18489304474946      6.72560102549766
  H   -1.70500505338255      4.51239081930785      7.51207918532806
  O   -0.78195838802921      4.60349094773137      7.85646810314209
  H   -0.62154466458053      5.56576289866712      7.98349173036390
  H   -0.59841393423075      1.99432354300797      7.63890623045352
  O   -1.23869414903912      1.94739308561087      6.91392525014598
  H   -2.09920287318897      1.77223208064251      7.31731536348035
  H   -2.44364831526416      2.94118554983293     10.57911898498871
  O   -2.21556284679993      2.03415799981634     10.28242636854336
  H   -2.81918187258104      1.86996790366110      9.54295756708234
  H   -0.12030282779414      3.40309982398930      8.85417691063952
  O   0.23288684047374      2.56851222404314      9.25617568039920
  H   -0.55781950500142      2.25506290004940      9.76383445268250
  H   2.03637243678098      2.03884423961545      8.25140514913507
  O   2.82399832791676      2.29829882176721      7.75671256801445
  H   3.27806829908741      1.44812939943671      7.56685978486194
  H   -1.97888518326220      5.29720462651447     10.72583787198164
  O   -2.75877804949831      4.69678084945194     10.89507029175273
  H   -3.06510495637121      4.93683952021095     11.77440871173422
  H   0.19788231003419      5.79539570889760     10.67076415696272
  O   -0.63404848377582      6.30718402184593     10.63687967236679
  H   -0.57465230945144      6.80343040170187      9.80472093749460
  H   0.69415409125225      7.23087198199499      7.55680756709974
  O   -0.22140021503227      7.25061241227624      7.89648668925398
  H   -0.74165405468536      7.26569216021020      7.05388708545591
  H   2.87478996835806      6.68100166574097      6.02360734353470
  O   1.91073479369642      6.72291247123885      6.14400491153529
  H   1.64162002452856      5.78189930204835      6.03103730924922
  O   1.68055690061754      4.62862974912360     10.62988482165290
  H   2.48954958839698      4.82898746247338     10.14933205423960
  H   1.37611629388487      3.77577485062354     10.27051380675533
