603

H     0.201027     3.031089    -0.679937
O     0.723750     2.362574    -1.173009
H     1.662412     2.490169    -0.897890
H    -0.085285    -1.311548     3.144648
O     0.306906    -0.611219     2.600510
H    -0.169151     0.202771     2.835124
H    -2.399303     2.412835    -0.542283
O    -2.191533     1.941019     0.281724
H    -2.205409     0.993621     0.055536
H    -4.670136     0.548724     2.170778
O    -4.989364    -0.384385     2.179445
H    -4.478342    -0.860973     1.517093
H     0.058288    -0.310642     0.945873
O    -0.139291    -0.072066     0.019418
H     0.203371     0.823526    -0.099976
H    -0.167313    -3.582562     3.768292
O    -0.446379    -2.752677     4.189261
H     0.198967    -2.583603     4.892194
H    -4.889515     2.533448     1.320567
O    -4.252345     2.120590     1.935508
H    -3.408263     2.103590     1.424687
H    -3.245637     3.903528    -2.217533
O    -2.509793     3.304552    -1.986137
H    -2.149483     3.018369    -2.845598
H    -0.133409    -3.806498     0.493931
O     0.206315    -2.989127     0.912358
H    -0.580756    -2.502731     1.224337
H    -2.386014    -1.539630     2.459252
O    -2.199297    -2.005356     1.617553
H    -2.452247    -1.415345     0.888597
H     2.069107    -1.444995    -1.125188
O     2.298938    -1.698775    -0.207575
H     1.509082    -2.126627     0.174486
H    -1.394644     1.823481     1.906944
O    -1.490546     1.424325     2.781815
H    -1.474932     2.135300     3.448331
H     0.204052    -2.702521    -1.578307
O    -0.551530    -2.090571    -1.632346
H    -0.371562    -1.364708    -0.997920
H    -3.441001    -2.921322    -0.402838
O    -2.727543    -3.414558    -0.828107
H    -2.013937    -2.786071    -1.042359
H     2.764310     0.121820     2.932320
O     2.861212    -0.062293     3.893922
H     2.953329     0.829818     4.300139
H    -3.526747     6.383851    -0.545617
O    -3.286825     7.046788    -1.244808
H    -3.144647     7.891357    -0.773539
H     3.896517     0.577813     1.187017
O     2.945536     0.396892     1.301203
H     2.708750    -0.354665     0.720571
H    -5.782371     0.851618    -1.618656
O    -4.871622     1.176338    -1.489004
H    -4.981879     2.004933    -0.977323
H    -1.214206     5.395059     2.209304
O    -1.839657     4.648469     2.091008
H    -1.918681     4.229026     2.953046
H     3.491324     2.758276     0.428151
O     3.243998     2.716576    -0.511269
H     3.576921     1.874401    -0.862463
H     1.486035    -4.696739    -2.259824
O     1.549566    -3.919583    -1.686340
H     2.345684    -3.459235    -2.035166
H    -0.921860    -0.081653    -2.554291
O    -0.287588     0.570978    -2.877585
H    -0.026676     1.152253    -2.139897
H     1.690595    -4.688001    -0.188229
O     1.795504    -5.325652     0.554033
H     1.332257    -6.136436     0.256375
H    -1.228322    -3.261948    -2.890512
O    -1.057620    -3.944522    -3.552778
H    -0.930587    -4.792557    -3.085501
H    -2.788375     3.305405     4.699522
O    -1.807224     3.301004     4.666445
H    -1.515831     2.898268     5.502779
H     0.956464     5.028062     4.077983
O     0.010437     5.260760     4.129030
H    -0.462232     4.457622     4.385637
H    -1.739632    -4.650139    -0.384785
O    -0.974959    -5.190580    -0.099170
H    -1.323276    -5.880018     0.475900
H    -3.912973     5.838714    -2.601956
O    -4.264034     5.005444    -2.933628
H    -4.107368     4.971969    -3.901601
H    -2.439704    -3.689759     1.923246
O    -2.461475    -4.593783     2.298793
H    -1.522382    -4.835514     2.438630
H    -4.698217    -2.973162    -2.914037
O    -3.846788    -3.206126    -3.320744
H    -3.515118    -4.000147    -2.856201
H     0.329590     1.369958     4.611955
O     0.835857     2.130283     4.279239
H     0.885449     2.788071     4.987197
H    -4.597320    -5.147739    -1.571538
O    -5.339488    -4.850801    -1.007562
H    -5.055715    -5.147393    -0.116198
H     2.321353    -6.480196    -4.049641
O     1.982992    -6.152022    -3.196342
H     2.415917    -6.727228    -2.533180
H     0.464539    -3.375543    -4.015070
O     1.268032    -3.008279    -4.436144
H     0.950781    -2.635561    -5.284911
H     1.954042    -1.759312     2.976804
O     2.108150    -2.690135     2.758532
H     1.423140    -2.902253     2.090296
H    -3.015966    -1.802666    -3.222400
O    -2.594087    -0.916630    -3.154578
H    -3.247802    -0.269698    -3.475382
H    -3.191710     4.976865     1.076034
O    -3.972919     5.350889     0.621075
H    -4.388100     5.908817     1.327345
H     0.870178     2.248789     2.589473
O     0.971766     2.244711     1.618323
H     1.699013     1.621730     1.454360
H     0.192429     5.657251    -0.756366
O     0.715007     6.319153    -1.264034
H     0.857539     7.118229    -0.707216
H     0.341529     7.031840     2.594510
O    -0.020020     6.652451     1.776331
H     0.644000     5.981891     1.514826
H    -2.488673     0.213281     3.332261
O    -2.712696    -0.601556     3.835076
H    -1.953175    -0.642774     4.458203
H    -0.906708     0.546245     6.018977
O    -0.632815     0.027248     5.244155
H     0.080370    -0.576805     5.530907
H     0.697231    -4.998531     1.969303
O     0.153011    -5.108366     2.772422
H     0.296762    -6.029472     3.043748
H    -2.132733    -8.088044     0.428993
O    -1.808315    -7.598834     1.211916
H    -2.594492    -7.293629     1.672088
H    -0.374281     6.866596    -2.323084
O    -1.119825     7.287560    -2.822879
H    -1.910493     7.161554    -2.260234
H    -1.114741     4.309477     0.572218
O    -0.740828     4.370941    -0.323446
H    -1.446920     4.130798    -0.956935
H    -4.416110     2.746675     3.498720
O    -4.416310     2.915830     4.463400
H    -4.500626     2.032493     4.871527
H     2.010196    -3.590653     4.236869
O     1.944077    -4.063642     5.089434
H     2.451579    -3.528866     5.721365
H     4.679120    -3.201504     0.835748
O     4.519920    -3.124261    -0.130870
H     3.661630    -2.646153    -0.214713
H    -2.725981    -0.744650    -1.361738
O    -3.056691    -0.477248    -0.487724
H    -3.853739     0.053165    -0.696026
H    -1.614913    -0.753732    -4.639763
O    -1.107732    -0.537346    -5.443216
H    -0.397277     0.058104    -5.157060
H     1.793307    -1.713277    -3.382643
O     1.884902    -0.967396    -2.758285
H     1.108717    -0.389091    -2.890353
H     3.651955    -3.130229     2.545880
O     4.610828    -3.359835     2.473603
H     4.664567    -4.320229     2.599257
H     3.411336    -6.129798     3.114406
O     3.768401    -5.927673     2.215003
H     3.031751    -5.581186     1.671572
H    -3.341055     1.618339    -4.186903
O    -4.186779     1.148124    -3.997307
H    -4.404903     1.294198    -3.041018
H    -5.082424     4.151822     0.059734
O    -5.522509     3.286565    -0.045687
H    -6.452154     3.408306    -0.328577
H     6.730090    -1.188276    -1.360879
O     5.956887    -1.038557    -0.810401
H     5.537132    -1.906246    -0.614249
H     4.589027    -3.171589    -2.474099
O     3.721820    -2.998965    -2.891011
H     3.725866    -3.616948    -3.647862
H     4.420200    -2.306560     5.618962
O     4.075313    -2.772796     6.410830
H     4.410005    -3.677916     6.328762
H    -0.759395     6.331625     5.076323
O    -1.356436     6.907238     5.614243
H    -1.368259     7.784962     5.173998
H     4.695685    -0.140282    -1.466173
O     3.928960     0.403005    -1.729301
H     3.236603    -0.196715    -2.060997
H    -0.737610     4.528701    -4.038463
O    -1.519828     5.072458    -4.246490
H    -1.367861     5.938652    -3.823047
H     0.661521     3.205598    -2.659034
O     0.669716     3.583230    -3.567139
H     0.717795     2.820480    -4.153488
H    -5.304816    -5.130144     1.851497
O    -4.628174    -5.749597     1.499604
H    -3.783315    -5.319958     1.759767
H     7.880021    -1.694757    -4.031467
O     7.621206    -1.382324    -3.131811
H     7.135517    -0.537771    -3.287952
H     3.698077    -5.071107    -5.297458
O     4.459940    -4.698564    -4.814888
H     4.843406    -5.410614    -4.269615
H    -3.795460     0.015193     4.924254
O    -4.397596     0.478994     5.555661
H    -5.057869    -0.179143     5.847029
H     3.454003    -5.946731    -0.528052
O     4.327123    -5.699777    -0.844901
H     4.404388    -4.737807    -0.699663
H     5.000641    -0.337201    -4.160302
O     4.464676    -1.047274    -4.551668
H     4.137622    -1.631516    -3.834975
H    -1.171169     1.577342    -3.942084
O    -1.821074     2.198377    -4.328085
H    -1.461755     2.531181    -5.173299
H     4.876386    -6.325624    -2.322698
O     5.210131    -6.649418    -3.188391
H     6.027159    -7.131883    -3.001240
H     8.733676    -5.098967    -2.919334
O     8.041033    -5.516490    -2.362529
H     8.074871    -6.473767    -2.465548
H     2.337424     4.715764     0.454566
O     1.756882     4.697400     1.224770
H     1.398658     3.777381     1.300945
H    -4.430055    -2.637349     4.215658
O    -5.322976    -2.295313     4.011248
H    -5.182335    -1.511706     3.440049
H    -5.791778    -3.118821     1.309969
O    -6.298162    -3.648023     1.976724
H    -6.082858    -3.203440     2.824268
H     1.676016     3.457738     6.863077
O     1.054090     3.974251     6.328942
H     0.270772     4.127829     6.899960
H     4.988868    -2.180003     3.614105
O     5.009021    -1.462481     4.279064
H     4.197971    -0.905338     4.122010
H     2.372886    -5.586281     4.829019
O     2.752607    -6.469873     4.568111
H     2.007439    -7.050812     4.392597
H     2.256159    -4.511035    -6.799114
O     2.084938    -5.000223    -5.984405
H     1.820717    -4.309776    -5.328241
H     6.430849    -4.110686    -0.506295
O     7.183125    -4.514783    -0.042464
H     7.690936    -4.937401    -0.762980
H    -1.735801     4.482148     7.698354
O    -0.837326     4.578755     8.084890
H    -0.655370     5.537710     8.110863
H    -5.111172     5.704770    -5.602110
O    -4.504648     4.940390    -5.622443
H    -3.746321     5.154652    -6.187127
H     3.284277    -2.521890    -8.441902
O     3.194693    -3.054784    -7.640941
H     4.070970    -3.032518    -7.211193
H    -0.653257     8.829809    -2.274796
O    -0.530372     9.657422    -1.754671
H     0.231142     9.481781    -1.177275
H     2.053341    -0.921888     5.207396
O     1.478434    -1.447356     5.793091
H     1.572277    -1.104023     6.691071
H     5.205277    -2.024196    -5.694962
O     5.551141    -2.790231    -6.217454
H     5.276141    -3.580514    -5.700995
H     5.678535    -5.227564     4.681087
O     5.155198    -5.142705     5.507100
H     4.433542    -5.774363     5.420290
H    -3.987700     1.141584     6.997511
O    -3.796189     1.616116     7.841989
H    -4.672099     2.002525     8.102332
H    -1.846094     9.616926    -0.742883
O    -2.707328     9.490550    -0.269807
H    -3.317263     10.120440    -0.657359
H    -5.945172     4.699039    -2.946886
O    -6.853863     4.580219    -3.291280
H    -6.763278     3.879166    -3.969615
H     0.082947    -7.064265    -1.157309
O     0.546310    -7.500474    -0.409468
H    -0.133898    -7.697148     0.237824
H    -7.636556     3.801994    -1.984231
O    -7.899684     3.213622    -1.245714
H    -7.756386     2.305872    -1.587202
H     3.958182    -0.905854     6.984741
O     3.967459     0.058311     6.976305
H     4.780814     0.347914     6.546487
H     2.260153     5.794436    -1.176141
O     3.195173     5.500582    -1.060950
H     3.372391     4.961351    -1.854612
H     6.538087    -5.938537     0.667420
O     6.168015    -6.675038     1.199809
H     5.263521    -6.397279     1.425925
H    -3.879162     4.723824     7.775682
O    -3.312521     4.261163     7.116507
H    -3.506559     3.317804     7.226219
H     5.748362    -7.953148     0.130034
O     5.460699    -8.639125    -0.508743
H     4.632145    -8.312593    -0.903406
H    -0.570606     2.033106     7.689065
O    -1.203180     1.969728     6.953236
H    -2.072110     1.828573     7.348922
H    -6.386662    -0.115037     1.046343
O    -6.707981    -0.204770     0.134104
H    -7.630680    -0.460587     0.154342
H    -5.380418    -3.061816    -0.608560
O    -5.130802    -2.362760     0.020885
H    -5.695237    -1.585150    -0.166320
H     4.317273     5.572258     0.326027
O     4.649982     5.671488     1.231814
H     3.955513     6.182123     1.683722
H    -9.056558    -1.711956    -2.362525
O    -8.544348    -1.492509    -1.554226
H    -8.672696    -2.202531    -0.890703
H    -5.520679     3.482494    -5.536370
O    -6.038652     2.771295    -5.123152
H    -5.372551     2.185457    -4.709385
H     3.180614    -0.886198    -5.658099
O     2.325017    -1.005018    -6.124910
H     2.410858    -1.853387    -6.599549
H     8.114609    -1.352457    -6.026716
O     8.121322    -2.216841    -5.571003
H     7.265196    -2.615887    -5.823132
H     7.623539     0.988828    -6.305545
O     7.434175     0.141157    -6.719881
H     6.452861     0.092153    -6.757288
H    -7.921466    -3.534229     0.956791
O    -8.628145    -3.512842     0.285626
H    -8.366889    -4.183121    -0.376912
H    -2.405905     8.737705     1.293879
O    -2.256836     8.147986     2.046347
H    -1.486695     7.594636     1.824091
H    -4.447343     6.436337     3.492896
O    -4.616224     6.862868     2.636366
H    -3.852368     7.448647     2.498292
H     3.402745     3.446151    -3.575300
O     3.250138     4.415418    -3.480970
H     2.285531     4.481259    -3.589867
H    -6.118163    -1.596919    -3.456823
O    -6.208453    -2.177165    -2.673541
H    -6.988798    -1.861702    -2.166243
H     6.457186     1.036991     4.742840
O     6.062570     1.575412     5.445728
H     6.252064     2.494208     5.156085
H     1.364087     1.726221    -5.824893
O     1.167585     1.129584    -5.071702
H     1.531519     0.266743    -5.341793
H    -2.504967     2.954436     10.478652
O    -2.293423     2.046937     10.204438
H    -2.890580     1.848747     9.471276
H     7.617193    -0.510038     3.086351
O     6.867439     0.066142     3.254721
H     6.174299    -0.533947     3.632901
H    -5.689140    -8.205402    -0.419588
O    -4.880365    -8.240780     0.140518
H    -4.830657    -7.374856     0.573370
H    -5.178538    -0.109185    -4.725928
O    -5.797248    -0.820326    -4.964011
H    -6.633567    -0.376687    -5.165871
H     1.892695    -0.193049    -7.518724
O     1.692165     0.279875    -8.362283
H     2.269296    -0.124991    -9.015242
H     4.875658    -1.388963    -9.305513
O     3.951030    -1.158868    -9.588575
H     3.931880    -1.276097    -10.537723
H     7.550194    -2.584178     4.200500
O     7.697731    -2.619078     3.241077
H     7.204413    -3.409522     2.967927
H     6.705401    -5.905725     2.680829
O     6.766937    -5.231135     3.382575
H     7.642204    -5.317626     3.801477
H    -1.822055     8.945701     3.498803
O    -1.575104     9.249048     4.397772
H    -2.424267     9.382149     4.852375
H    -7.388445     1.580450    -5.263533
O    -7.964494     0.837056    -5.018775
H    -8.865894     1.238319    -4.944224
H     6.928967    -1.082097    -8.403069
O     6.346270    -1.802057    -8.668051
H     6.117321    -2.252816    -7.836889
H    -1.668480     6.249813    -7.023829
O    -2.067570     5.424865    -6.751033
H    -1.820007     5.293101    -5.787329
H    -0.012715     3.301302     9.021400
O     0.182856     2.380945     9.275427
H    -0.616168     2.117183     9.780964
H     6.750426    -2.784760    -2.705539
O     6.218593    -3.528764    -2.366149
H     6.686738    -4.339845    -2.612601
H    -4.080939    -3.063187    -4.957863
O    -4.235895    -2.950188    -5.922407
H    -4.780305    -2.155303    -5.978862
H     1.966178     2.172485     8.464613
O     2.630617     2.284871     7.775110
H     3.052305     1.414389     7.659532
H    -6.923480    -5.256963    -1.467985
O    -7.875819    -5.407777    -1.694760
H    -7.968648    -4.972053    -2.573257
H    -3.834560     5.254605     5.692970
O    -3.800572     6.023181     5.102419
H    -2.866521     6.316987     5.198016
H    -7.890245     0.101770    -1.981814
O    -7.396113     0.822479    -2.394663
H    -7.624255     0.813785    -3.348196
H     5.830972     0.122956     0.413598
O     5.608805     0.843985     1.034982
H     6.118084     0.647576     1.848273
H    -6.227026     3.310729     7.386838
O    -6.100409     2.791460     8.215032
H    -6.701506     2.031007     8.125791
H     2.264420    -8.075985    -0.853721
O     2.941903    -8.062786    -1.549486
H     2.717412    -8.776357    -2.163421
H    -2.747728    -3.952192    -6.210205
O    -1.996525    -4.520804    -5.976961
H    -1.719577    -4.229755    -5.079792
H    -5.652299     3.762607     5.301245
O    -6.302391     4.158821     5.917546
H    -6.137174     5.102620     5.906492
H    -1.029208    -7.110694    -3.175859
O    -0.557275    -6.440134    -2.647950
H     0.351205    -6.372879    -3.027019
H     4.434232     2.006403     5.131022
O     3.492914     2.246809     5.010105
H     3.107833     2.262562     5.891670
H     4.100781     4.646297     6.305697
O     4.182961     5.376996     5.688447
H     3.615929     5.137848     4.916745
H     2.757935     3.610473     3.924810
O     2.581167     4.550841     3.759472
H     2.463142     4.650503     2.793015
H     9.388942     0.201799    -1.065000
O     8.582220     0.364918    -0.572661
H     8.405190    -0.454114    -0.080280
H    -2.114340     5.312789     10.648760
O    -2.837355     4.684785     10.878508
H    -3.056589     4.861299     11.793625
H     7.963295    -3.018707     0.328539
O     8.384788    -2.172591     0.584960
H     8.318121    -2.168705     1.547224
H     5.364118     3.655655     3.530096
O     6.019917     3.919684     4.197239
H     5.607596     4.637727     4.699260
H    -4.221445     5.018451     9.780039
O    -4.853490     5.170249     9.057240
H    -5.466214     4.422365     9.053955
H    -7.016830    -3.464881    -3.503916
O    -7.635401    -4.081959    -3.948683
H    -7.115219    -4.520500    -4.654278
H     0.014904     6.118974     10.772281
O    -0.849134     6.451147     10.524146
H    -0.731853     6.882681     9.658537
H     2.589356     1.496571    -4.105850
O     3.467687     1.848415    -3.866003
H     3.786903     1.332419    -3.095632
H    -6.987810    -0.217599     7.206492
O    -7.495743     0.561324     7.486565
H    -8.118103     0.746175     6.782155
H    -2.755465    -9.871015    -0.853913
O    -2.692493    -8.930149    -1.018591
H    -3.588234    -8.562425    -0.753686
H    -10.066139     3.091028    -4.913349
O    -10.183954     2.173855    -4.631914
H    -10.400904     2.259227    -3.682466
H    -2.083399    -3.025625     4.603918
O    -2.959730    -3.463589     4.670789
H    -2.950866    -4.083157     3.915852
H    -0.196030    -7.985503     2.472631
O     0.630017    -7.774527     2.920906
H     1.348684    -8.071772     2.335261
H     6.689714    -2.389220     6.392978
O     7.138759    -3.098976     5.929045
H     6.508150    -3.833202     5.889486
H    -5.288816    -2.003861     6.930815
O    -5.964168    -1.505208     6.445947
H    -5.947005    -1.881925     5.537035
H     0.841366     3.038894    -7.116011
O     1.758531     2.706833    -7.171067
H     1.744783     1.960048    -7.797811
H    -3.959347     8.755846     6.671487
O    -3.956605     8.754162     5.714120
H    -4.082509     7.826912     5.445779
H    -2.051708     10.319465    -2.734997
O    -2.952895     10.501863    -3.037707
H    -2.879977     11.136832    -3.749588
H     9.395429    -4.075604     4.046054
O     9.114031    -4.753940     4.667646
H     8.684470    -4.281752     5.391856
H    -0.740496    -5.990220    -5.853468
O    -0.038534    -6.557585    -5.518490
H     0.798102    -6.097632    -5.735024
H     1.827581     8.273134     0.669231
O     1.525386     8.595787    -0.208439
H     2.340667     8.633627    -0.738031
H     3.502913     2.932668    -6.660710
O     4.329725     2.641131    -6.250839
H     4.083329     2.366822    -5.342473
H     3.736214     7.122337    -1.224046
O     3.943012     8.058030    -1.436537
H     4.313269     8.002310    -2.329458
H     4.397960    -0.004505    -7.912190
O     4.773767     0.140508    -7.042010
H     4.593177     1.072521    -6.798021
H     6.027157     1.926867    -0.471795
O     6.593244     2.120156    -1.232966
H     7.417188     1.639489    -1.038738
H     6.670443    -8.437368    -1.612684
O     7.307265    -8.226609    -2.348476
H     7.673195    -9.061007    -2.636929
H    -5.304875    -5.777050    -5.428746
O    -5.924412    -5.102634    -5.733498
H    -5.373821    -4.335002    -5.974071
H     0.675397     7.166475     7.603697
O    -0.226531     7.194475     7.962203
H    -0.781143     7.210713     7.144193
H    -8.903072    -2.820691    -4.121400
O    -9.420335    -2.011540    -3.948663
H    -9.137747    -1.345534    -4.579201
H    -2.423164    -5.982514    -2.153877
O    -3.299810    -5.694498    -2.426071
H    -3.482038    -6.067520    -3.313853
H    -2.994612    -5.891385    -5.422384
O    -3.595756    -6.500666    -4.950607
H    -3.113888    -7.321690    -4.785406
H    -1.385156     3.735508    -6.986024
O    -0.846451     2.978730    -6.714846
H    -1.083155     2.194533    -7.266174
H    -0.200718     0.426298    -8.221233
O    -1.096853     0.662014    -7.938386
H    -1.273075     0.137871    -7.141118
H    -10.422811     4.067601    -2.747107
O    -10.490317     3.287924    -2.180307
H    -9.661632     3.261834    -1.670332
H     4.576505     4.074169     1.724345
O     4.366581     3.153073     2.001291
H     5.082387     2.576721     1.720735
H     6.485617     1.395311    -4.216237
O     6.180849     0.770981    -3.523194
H     6.211733     1.265548    -2.678863
H     9.625386    -2.235759    -0.926073
O     9.903190    -2.020520    -1.825291
H     9.103618    -1.680721    -2.269268
H     9.963014    -3.328829    -3.095895
O     9.695807    -3.979922    -3.771660
H     9.303638    -3.471243    -4.491987
H    -7.882225    -8.080361    -0.468648
O    -7.238762    -8.204074    -1.187035
H    -7.383809    -7.400520    -1.711723
H     4.165183     6.080507    -3.815841
O     4.826780     6.781054    -3.729236
H     5.662477     6.326246    -3.591501
H     0.088492    -8.165359    -5.228443
O     0.110510    -9.148160    -5.097050
H     0.261325    -9.512128    -5.969465
H    -2.347125    -8.667354    -2.734081
O    -2.111480    -8.400954    -3.642968
H    -1.466444    -9.020961    -4.001999
H     2.169326    -10.815061    -3.507576
O     2.125006    -9.860383    -3.484085
H     1.339705    -9.588824    -4.009955
H     6.838180     3.327926    -4.569177
O     6.896236     2.650179    -5.270457
H     6.103607     2.784746    -5.812018
H    -3.583710    -3.724504     7.708825
O    -3.697150    -2.936671     7.178601
H    -3.444111    -3.175558     6.260756
H    -0.640225    -3.354740    -6.733954
O    -0.009580    -2.623787    -6.739626
H    -0.490844    -1.848083    -6.397971
H     0.626195     0.452857     8.748838
O     0.633394    -0.261061     8.107294
H    -0.288995    -0.549056     8.018749
H    -5.827633     7.380042    -4.256357
O    -6.330711     6.761956    -4.818171
H    -6.619359     6.031411    -4.227592
H    -4.272001     9.112198    -3.264990
O    -4.808434     8.316382    -3.159825
H    -4.401222     7.836139    -2.420749
H    -9.707266     5.812533    -4.655626
O    -10.241612     5.008139    -4.493701
H    -11.121516     5.210505    -4.813542
H     2.762469     6.507901     6.144321
O     1.802338     6.605271     6.241094
H     1.458010     5.692358     6.137625
H     4.806286     8.542980     0.092100
O     5.122425     8.542565     1.013460
H     5.528712     7.677905     1.143969
H     4.133269    -7.425957    -4.350400
O     3.375099    -7.708713    -4.893635
H     3.093769    -8.550198    -4.519395
H     0.375413     8.656582     4.237780
O     1.052339     8.011152     4.009615
H     1.277778     7.517571     4.824137
H     5.236869     4.189294    -3.153172
O     6.198217     4.158311    -3.099456
H     6.405848     3.575977    -2.351951
H    -2.594577    -1.548164     7.564105
O    -2.083760    -0.755358     7.784395
H    -2.708749    -0.129136     8.159947
H    -9.021526     7.952364    -4.154342
O    -8.958320     7.366915    -4.910452
H    -8.001260     7.203046    -5.045641
H     3.512624    -8.984675     1.080941
O     2.836817    -8.351660     1.328938
H     3.312434    -7.547596     1.610601
H     3.584565     8.167375     1.835567
O     2.793259     7.604671     1.946588
H     2.346593     7.840142     2.772545
N    -9.269542    -6.935117     0.413682
H    -9.131714    -6.290676    -0.296715
H    -9.232189    -6.400521     1.213493
