603

H     0.192358     3.040351    -0.714040
O     0.719030     2.382965    -1.218567
H     1.655125     2.502598    -0.931743
H    -0.071301    -1.291663     3.132411
O     0.317961    -0.592411     2.584716
H    -0.159732     0.221106     2.818332
H    -2.407789     2.414294    -0.556630
O    -2.189989     1.944769     0.266512
H    -2.210247     0.996650     0.043524
H    -4.662665     0.554347     2.167465
O    -4.977992    -0.379642     2.183718
H    -4.474544    -0.858008     1.516862
H     0.062362    -0.299077     0.930659
O    -0.132537    -0.062900     0.002710
H     0.201939     0.835311    -0.114469
H    -0.145684    -3.560936     3.765568
O    -0.424544    -2.729719     4.183793
H     0.221999    -2.556870     4.884669
H    -4.890042     2.535819     1.311267
O    -4.248969     2.127814     1.925695
H    -3.407040     2.110899     1.411913
H    -3.263536     3.899541    -2.232456
O    -2.530856     3.297217    -1.997289
H    -2.178299     3.004866    -2.857246
H    -0.122592    -3.796167     0.491275
O     0.217207    -2.976523     0.905161
H    -0.570182    -2.491146     1.218869
H    -2.374278    -1.528107     2.456166
O    -2.185560    -1.995464     1.615738
H    -2.447370    -1.410674     0.885640
H     2.069140    -1.436186    -1.143124
O     2.303098    -1.686060    -0.225772
H     1.515413    -2.113946     0.161156
H    -1.394079     1.835465     1.889089
O    -1.481501     1.439051     2.766122
H    -1.468045     2.152847     3.429702
H     0.205399    -2.699166    -1.585485
O    -0.549365    -2.086524    -1.641808
H    -0.370604    -1.360703    -1.007479
H    -3.437460    -2.923191    -0.400105
O    -2.719436    -3.414562    -0.820664
H    -2.011206    -2.782994    -1.041436
H     2.774035     0.146987     2.906930
O     2.875441    -0.033822     3.868501
H     2.966324     0.859904     4.271701
H    -3.542871     6.382965    -0.570665
O    -3.305374     7.044084    -1.271694
H    -3.165521     7.891391    -0.804624
H     3.900405     0.598967     1.156442
O     2.949988     0.416894     1.273119
H     2.712946    -0.338052     0.697152
H    -5.788822     0.840039    -1.617497
O    -4.878381     1.167961    -1.492623
H    -4.989615     1.998501    -0.984152
H    -1.217710     5.409178     2.178193
O    -1.840254     4.659513     2.063976
H    -1.917512     4.244098     2.928089
H     3.487259     2.777483     0.390751
O     3.236751     2.729745    -0.547818
H     3.571338     1.886658    -0.895019
H     1.489902    -4.692730    -2.264255
O     1.554153    -3.913308    -1.693962
H     2.348053    -3.452664    -2.046904
H    -0.928391    -0.086437    -2.566447
O    -0.295446     0.566769    -2.892302
H    -0.035747     1.152680    -2.157141
H     1.701092    -4.676268    -0.193428
O     1.810629    -5.311537     0.550113
H     1.347492    -6.124003     0.257052
H    -1.232109    -3.266725    -2.891888
O    -1.056602    -3.950557    -3.551517
H    -0.929674    -4.796749    -3.081167
H    -2.779581     3.324000     4.680434
O    -1.798354     3.321734     4.644511
H    -1.503751     2.922749     5.481469
H     0.959540     5.052842     4.041480
O     0.013288     5.283603     4.094564
H    -0.457233     4.480549     4.355395
H    -1.728743    -4.645924    -0.379472
O    -0.962196    -5.184919    -0.094922
H    -1.307765    -5.870907     0.485633
H    -3.936019     5.827274    -2.622921
O    -4.291589     4.993682    -2.949465
H    -4.127053     4.957687    -3.915548
H    -2.425944    -3.680003     1.927261
O    -2.442390    -4.583598     2.304530
H    -1.502175    -4.820068     2.444508
H    -4.700565    -2.983428    -2.905746
O    -3.848043    -3.215933    -3.312201
H    -3.516309    -4.008765    -2.846135
H     0.342677     1.396101     4.588931
O     0.847281     2.155760     4.251992
H     0.896380     2.816484     4.957320
H    -4.655088    -5.171728    -1.572555
O    -5.356100    -4.817620    -0.998348
H    -5.141164    -5.169777    -0.113722
H     2.323849    -6.480847    -4.050787
O     1.988230    -6.149720    -3.197587
H     2.423888    -6.721962    -2.533672
H     0.460678    -3.380162    -4.019858
O     1.261203    -3.011421    -4.445996
H     0.938019    -2.645121    -5.295457
H     1.968161    -1.736118     2.960815
O     2.124300    -2.667084     2.744454
H     1.436994    -2.883114     2.079798
H    -3.021818    -1.811396    -3.222085
O    -2.600010    -0.924211    -3.161507
H    -3.258870    -0.280361    -3.479138
H    -3.198596     4.981591     1.054190
O    -3.982252     5.351667     0.600682
H    -4.396637     5.911808     1.305429
H     0.873067     2.268736     2.560392
O     0.973157     2.260498     1.588883
H     1.701951     1.638702     1.427428
H     0.179290     5.664912    -0.790543
O     0.705250     6.319026    -1.304451
H     0.844225     7.125355    -0.756268
H     0.335049     7.050712     2.552572
O    -0.028028     6.666669     1.737276
H     0.637289     5.997699     1.475971
H    -2.477796     0.227634     3.323473
O    -2.697087    -0.586073     3.830033
H    -1.935698    -0.622668     4.450902
H    -0.887145     0.574465     6.003646
O    -0.613728     0.053533     5.229882
H     0.100749    -0.548488     5.517006
H     0.716355    -4.981431     1.968308
O     0.175662    -5.089576     2.773945
H     0.321766    -6.009394     3.048063
H    -2.111768    -8.082040     0.448321
O    -1.788212    -7.591646     1.231534
H    -2.573920    -7.280668     1.688802
H    -0.394660     6.876232    -2.270135
O    -1.154484     7.275450    -2.769050
H    -1.926162     7.159167    -2.166865
H    -1.120197     4.318223     0.544242
O    -0.751480     4.374958    -0.354035
H    -1.463368     4.132863    -0.980739
H    -4.410208     2.757905     3.487370
O    -4.406603     2.930183     4.451569
H    -4.488450     2.048019     4.862781
H     2.032864    -3.562633     4.226691
O     1.971452    -4.033335     5.080844
H     2.478620    -3.494544     5.709635
H     4.689707    -3.179901     0.815645
O     4.527520    -3.106003    -0.150862
H     3.667662    -2.630489    -0.233372
H    -2.728784    -0.746944    -1.367344
O    -3.053715    -0.474764    -0.492860
H    -3.855966     0.049253    -0.698862
H    -1.631513    -0.767892    -4.648034
O    -1.124951    -0.552742    -5.452701
H    -0.416319     0.045491    -5.170138
H     1.786451    -1.714131    -3.398228
O     1.880894    -0.963206    -2.780118
H     1.099325    -0.391291    -2.906196
H     3.668007    -3.104655     2.528800
O     4.627128    -3.332629     2.453612
H     4.683422    -4.292323     2.583231
H     3.435839    -6.102946     3.108625
O     3.789523    -5.903589     2.207196
H     3.050478    -5.560105     1.665157
H    -3.360442     1.604845    -4.194428
O    -4.204115     1.131411    -4.001741
H    -4.420315     1.280723    -3.045382
H    -5.091538     4.148912     0.044852
O    -5.529306     3.281911    -0.054859
H    -6.460194     3.399794    -0.335919
H     6.729414    -1.169856    -1.393956
O     5.956290    -1.019443    -0.843598
H     5.539773    -1.887480    -0.641723
H     4.588947    -3.161222    -2.494275
O     3.720615    -2.991082    -2.909966
H     3.723061    -3.613104    -3.663540
H     4.444659    -2.268498     5.596478
O     4.103694    -2.732768     6.391121
H     4.439720    -3.637533     6.310987
H    -0.755949     6.356581     5.040436
O    -1.352158     6.932654     5.578581
H    -1.368075     7.808747     5.134916
H     4.692360    -0.124974    -1.497919
O     3.924094     0.415424    -1.762940
H     3.231876    -0.188398    -2.087187
H    -1.014595     4.458833    -3.875534
O    -1.674755     5.092880    -4.206297
H    -1.466626     5.938790    -3.754253
H     0.684739     3.238662    -2.598197
O     0.656484     3.636708    -3.505668
H     0.642451     2.844225    -4.057090
H    -5.378035    -5.188045     1.794257
O    -4.681293    -5.782751     1.438928
H    -3.840818    -5.365306     1.707181
H     7.871674    -1.683034    -4.067247
O     7.614673    -1.367576    -3.168149
H     7.126740    -0.524933    -3.325517
H     3.692945    -5.072861    -5.307764
O     4.455761    -4.696857    -4.829291
H     4.842521    -5.406160    -4.282656
H    -3.779089     0.032457     4.920121
O    -4.378787     0.497308     5.552899
H    -5.037816    -0.160675     5.847663
H     3.466561    -5.932362    -0.534495
O     4.337863    -5.684452    -0.855672
H     4.413564    -4.721932    -0.713441
H     4.989877    -0.333359    -4.189823
O     4.451607    -1.043212    -4.578463
H     4.129504    -1.628019    -3.859497
H    -1.216635     1.457370    -3.896502
O    -1.824659     2.123035    -4.281767
H    -1.523905     2.339960    -5.186149
H     4.883664    -6.314426    -2.332792
O     5.215458    -6.640226    -3.198512
H     6.034010    -7.120476    -3.012294
H     8.736318    -5.081685    -2.945928
O     8.046170    -5.498591    -2.385606
H     8.081917    -6.456201    -2.485045
H     2.330724     4.731250     0.416172
O     1.751453     4.713662     1.187030
H     1.395381     3.793325     1.267330
H    -4.408358    -2.622084     4.224223
O    -5.303126    -2.284326     4.022606
H    -5.168439    -1.504139     3.445267
H    -5.844063    -3.191591     1.314309
O    -6.304533    -3.747878     1.984792
H    -6.115284    -3.310117     2.834006
H     1.691375     3.493982     6.829491
O     1.066766     4.007066     6.295269
H     0.284920     4.161341     6.868237
H     5.006359    -2.147687     3.589183
O     5.027387    -1.427727     4.251362
H     4.214409    -0.872927     4.095401
H     2.402409    -5.555335     4.824516
O     2.782879    -6.439276     4.565426
H     2.038112    -7.022155     4.394771
H     2.244070    -4.521479    -6.806882
O     2.077870    -5.007825    -5.989510
H     1.813641    -4.315891    -5.334982
H     6.438939    -4.090017    -0.528575
O     7.193917    -4.490542    -0.066131
H     7.700205    -4.914688    -0.786806
H    -1.719481     4.513539     7.672407
O    -0.819779     4.613633     8.055401
H    -0.640187     5.573169     8.077383
H    -5.130069     5.685430    -5.624307
O    -4.518048     4.924129    -5.649043
H    -3.765548     5.146751    -6.209192
H     3.263362    -2.535269    -8.460307
O     3.176613    -3.063836    -7.656208
H     4.054605    -3.040323    -7.230098
H    -0.678963     8.831885    -2.322399
O    -0.558172     9.659022    -1.799769
H     0.207789     9.487123    -1.228023
H     2.073375    -0.890295     5.188096
O     1.502493    -1.415916     5.777489
H     1.597129    -1.068331     6.673788
H     5.191990    -2.024504    -5.720621
O     5.537622    -2.791280    -6.241732
H     5.266231    -3.580686    -5.721762
H     5.706099    -5.190269     4.664698
O     5.185437    -5.103808     5.492182
H     4.464654    -5.737062     5.409924
H    -3.966287     1.165682     6.990524
O    -3.772968     1.643599     7.832798
H    -4.649018     2.028992     8.094441
H    -1.868785     9.617976    -0.787697
O    -2.727879     9.492377    -0.309224
H    -3.340224     10.118328    -0.699559
H    -5.964842     4.684747    -2.960186
O    -6.874965     4.561289    -3.300415
H    -6.784461     3.859047    -3.977031
H     0.095686    -7.059463    -1.148805
O     0.562215    -7.492753    -0.401075
H    -0.115328    -7.687287     0.249614
H    -7.650189     3.786091    -1.988803
O    -7.909601     3.200174    -1.246819
H    -7.766288     2.291172    -1.584952
H     3.983831    -0.864180     6.958898
O     3.991081     0.099941     6.946931
H     4.802432     0.389854     6.513597
H     2.206422     5.821726    -1.202452
O     3.135247     5.521230    -1.056189
H     3.330119     4.909586    -1.790104
H     6.554108    -5.913378     0.650889
O     6.187334    -6.649002     1.186681
H     5.283084    -6.372379     1.415231
H    -3.863148     4.751053     7.755630
O    -3.297107     4.287147     7.096843
H    -3.489638     3.343867     7.209806
H     5.767374    -7.931524     0.122995
O     5.479249    -8.620277    -0.512639
H     4.648620    -8.296944    -0.905553
H    -0.549414     2.067365     7.667835
O    -1.183960     1.999681     6.934143
H    -2.051543     1.858505     7.332879
H    -6.385855    -0.117844     1.053947
O    -6.706897    -0.205654     0.141808
H    -7.625803    -0.475720     0.161803
H    -5.374719    -3.063446    -0.592006
O    -5.121060    -2.359480     0.031174
H    -5.693156    -1.587874    -0.156111
H     4.308027     5.592059     0.278831
O     4.642995     5.693524     1.183454
H     3.949188     6.205505     1.635176
H    -9.051393    -1.752466    -2.252713
O    -8.501678    -1.548967    -1.468470
H    -8.627331    -2.283926    -0.828608
H    -5.542324     3.460781    -5.548519
O    -6.057811     2.751273    -5.130931
H    -5.391067     2.167051    -4.715961
H     3.165795    -0.892842    -5.679738
O     2.309173    -1.011601    -6.144965
H     2.392462    -1.862153    -6.616491
H     8.099428    -1.347824    -6.064476
O     8.108843    -2.210349    -5.605555
H     7.252975    -2.612317    -5.853708
H     7.602766     0.992143    -6.349258
O     7.413691     0.142726    -6.760065
H     6.432715     0.090396    -6.793667
H    -7.859426    -3.691517     0.933259
O    -8.539185    -3.586995     0.249894
H    -8.441536    -4.347834    -0.350043
H    -2.420663     8.745757     1.254502
O    -2.267170     8.159274     2.008936
H    -1.496948     7.606916     1.785254
H    -4.448808     6.447687     3.469038
O    -4.621639     6.870859     2.611744
H    -3.859613     7.457767     2.468347
H     3.414266     3.374522    -3.562148
O     3.335843     4.361546    -3.501394
H     2.372786     4.455091    -3.563640
H    -6.126182    -1.612490    -3.447758
O    -6.206221    -2.190173    -2.662258
H    -6.989673    -1.882892    -2.152635
H     6.471463     1.076514     4.701886
O     6.078021     1.616277     5.404321
H     6.264117     2.534626     5.111004
H     1.319452     1.562853    -5.862995
O     1.153381     0.992665    -5.080480
H     1.535476     0.131971    -5.363777
H    -2.476338     2.994015     10.460270
O    -2.263575     2.086030     10.188596
H    -2.862684     1.883967     9.458034
H     7.629406    -0.473979     3.047381
O     6.878727     0.101127     3.215212
H     6.188182    -0.498879     3.598425
H    -5.656488    -8.054328    -0.691647
O    -4.919841    -8.120402    -0.046928
H    -4.923819    -7.302066     0.473404
H    -5.192925    -0.127955    -4.725618
O    -5.809120    -0.841362    -4.963150
H    -6.648220    -0.401007    -5.160316
H     1.873424    -0.202945    -7.539715
O     1.676472     0.276154    -8.380314
H     2.240207    -0.138819    -9.038486
H     4.849416    -1.402089    -9.332879
O     3.923574    -1.173687    -9.613164
H     3.900956    -1.294830    -10.561782
H     7.570435    -2.544167     4.168704
O     7.715106    -2.582449     3.208949
H     7.222324    -3.374812     2.940434
H     6.728148    -5.873282     2.663627
O     6.790382    -5.195882     3.362511
H     7.667097    -5.278903     3.779171
H    -1.829221     8.962693     3.456820
O    -1.579978     9.268893     4.354331
H    -2.428005     9.402630     4.810785
H    -7.407662     1.555665    -5.261476
O    -7.980733     0.811490    -5.012831
H    -8.882998     1.210192    -4.936219
H     6.905909    -1.088549    -8.437738
O     6.322516    -1.809583    -8.698068
H     6.097958    -2.258833    -7.864920
H    -1.372770     5.872425    -7.142102
O    -2.034082     5.280955    -6.772512
H    -1.815585     5.258686    -5.791950
H     0.010207     3.341381     8.993575
O     0.208866     2.422420     9.250428
H    -0.588099     2.158691     9.759306
H     6.748822    -2.771223    -2.733638
O     6.219371    -3.515100    -2.390581
H     6.688925    -4.326086    -2.634802
H    -4.089770    -3.081172    -4.949035
O    -4.245049    -2.970989    -5.913885
H    -4.794379    -2.179367    -5.971153
H     1.989715     2.215315     8.434297
O     2.651950     2.326409     7.742434
H     3.074849     1.456324     7.628710
H    -6.910072    -5.204315    -1.389994
O    -7.825634    -5.475870    -1.633038
H    -7.961781    -5.075486    -2.516609
H    -3.826684     5.274367     5.671125
O    -3.796106     6.041054     5.078022
H    -2.862490     6.337332     5.169498
H    -7.894616     0.082745    -1.972215
O    -7.405602     0.805240    -2.388449
H    -7.636492     0.792658    -3.341077
H     5.833201     0.145143     0.378180
O     5.611593     0.868334     0.997142
H     6.123476     0.676128     1.809895
H    -6.208895     3.331210     7.379760
O    -6.078617     2.814936     8.209294
H    -6.678451     2.052929     8.124156
H     2.280716    -8.065182    -0.848647
O     2.955709    -8.053074    -1.546858
H     2.730569    -8.769344    -2.157360
H    -2.758328    -3.971501    -6.203282
O    -2.002528    -4.535268    -5.972188
H    -1.725730    -4.242060    -5.075794
H    -5.642407     3.777218     5.290331
O    -6.290390     4.174225     5.908317
H    -6.128655     5.118538     5.891672
H    -1.022322    -7.115162    -3.164512
O    -0.549418    -6.443040    -2.639562
H     0.357203    -6.374098    -3.022419
H     4.447405     2.042450     5.093936
O     3.505225     2.280044     4.974727
H     3.122641     2.298793     5.857351
H     4.111421     4.685920     6.260311
O     4.191399     5.413988     5.639684
H     3.621669     5.171633     4.870970
H     2.763351     3.638530     3.887132
O     2.584929     4.578063     3.719174
H     2.462718     4.674570     2.752974
H     9.386433     0.227299    -1.111757
O     8.579803     0.389744    -0.619099
H     8.406950    -0.427284    -0.121903
H    -2.090416     5.353927     10.620848
O    -2.811014     4.724917     10.855369
H    -3.028063     4.904690     11.770362
H     7.971953    -2.991571     0.297341
O     8.392134    -2.143418     0.549157
H     8.328834    -2.136347     1.511668
H     5.367908     3.688607     3.484086
O     6.025705     3.955954     4.147704
H     5.613568     4.674662     4.649121
H    -4.199932     5.051449     9.760145
O    -4.834587     5.199702     9.038953
H    -5.445738     4.450509     9.039807
H    -7.019611    -3.485806    -3.483433
O    -7.640161    -4.099871    -3.928720
H    -7.120310    -4.542927    -4.631085
H     0.037477     6.165321     10.734420
O    -0.828159     6.494756     10.488233
H    -0.714943     6.923373     9.620609
H     2.634995     1.403980    -4.102696
O     3.507965     1.776861    -3.873112
H     3.821749     1.277102    -3.082472
H    -6.963000    -0.198932     7.213546
O    -7.471745     0.579755     7.492972
H    -8.096620     0.760807     6.789760
H    -2.738762    -9.869882    -0.820573
O    -2.676997    -8.928589    -0.983056
H    -3.582892    -8.562560    -0.741284
H    -10.087236     3.061720    -4.906711
O    -10.202580     2.144845    -4.623161
H    -10.416528     2.231618    -3.673210
H    -2.060012    -3.006017     4.604823
O    -2.934104    -3.447132     4.677511
H    -2.929154    -4.066892     3.922898
H    -0.169531    -7.967969     2.485028
O     0.657669    -7.755132     2.930269
H     1.374952    -8.052096     2.342797
H     6.716878    -2.343612     6.363384
O     7.165776    -3.054029     5.900294
H     6.536575    -3.789709     5.865704
H    -5.260934    -1.982330     6.938840
O    -5.938772    -1.486292     6.454982
H    -5.924270    -1.865698     5.546823
H     0.706118     2.891611    -7.181579
O     1.665995     2.664124    -7.244422
H     1.695570     1.900642    -7.857386
H    -3.956487     8.778452     6.637974
O    -3.956008     8.773985     5.680627
H    -4.081214     7.845840     5.415175
H    -2.083077     10.311740    -2.785089
O    -2.987365     10.496921    -3.076293
H    -2.919270     11.120045    -3.799311
H     9.418373    -4.032367     4.013879
O     9.140233    -4.709294     4.638463
H     8.712113    -4.235601     5.362561
H    -0.745919    -6.004006    -5.845279
O    -0.041216    -6.568786    -5.511411
H     0.793431    -6.107558    -5.732315
H     1.813001     8.287345     0.617958
O     1.506340     8.604038    -0.259966
H     2.319151     8.645443    -0.792965
H     3.491972     2.894838    -6.686388
O     4.326743     2.616330    -6.289881
H     4.087159     2.279891    -5.399164
H     3.718163     7.136384    -1.274571
O     3.920406     8.071400    -1.491704
H     4.295550     8.013755    -2.382528
H     4.373557    -0.015348    -7.942592
O     4.751724     0.134299    -7.074093
H     4.571087     1.066066    -6.832147
H     6.022641     1.946771    -0.513796
O     6.584940     2.137736    -1.278464
H     7.411104     1.660624    -1.084852
H     6.684875    -8.419632    -1.621155
O     7.318739    -8.209968    -2.359835
H     7.686574    -9.044383    -2.645799
H    -5.311789    -5.798939    -5.402770
O    -5.930230    -5.128302    -5.717842
H    -5.380560    -4.360172    -5.958059
H     0.685042     7.203181     7.560345
O    -0.215745     7.230157     7.921708
H    -0.773018     7.242545     7.105334
H    -8.908634    -2.844413    -4.097429
O    -9.429383    -2.036042    -3.930502
H    -9.145851    -1.372348    -4.563024
H    -2.413474    -5.987792    -2.143981
O    -3.291954    -5.702083    -2.412062
H    -3.481105    -6.079961    -3.296033
H    -2.996733    -5.908185    -5.409586
O    -3.594728    -6.517010    -4.933997
H    -3.111920    -7.336577    -4.766418
H    -1.440976     3.682725    -6.994088
O    -0.949833     2.862005    -6.736782
H    -1.198433     2.114648    -7.332663
H    -0.229603     0.402637    -8.238734
O    -1.128207     0.629463    -7.958020
H    -1.298448     0.112459    -7.155188
H    -10.438495     4.044470    -2.744036
O    -10.503655     3.267058    -2.173848
H    -9.673190     3.243390    -1.666613
H     4.573306     4.099314     1.679568
O     4.365685     3.177703     1.957317
H     5.083770     2.603124     1.679248
H     6.470255     1.403831    -4.257708
O     6.165984     0.781966    -3.562615
H     6.201231     1.278054    -2.719068
H     9.628267    -2.209579    -0.965369
O     9.902477    -1.997169    -1.866376
H     9.100926    -1.660181    -2.308673
H     9.961262    -3.309582    -3.132559
O     9.693093    -3.963481    -3.805227
H     9.297782    -3.458130    -4.526128
H    -7.697866    -8.578107    -1.648957
O    -6.960995    -7.983185    -1.780193
H    -7.339842    -7.070604    -1.771932
H     4.346502     6.271067    -3.981033
O     5.037754     6.910765    -3.763086
H     5.759817     6.345096    -3.459863
H     0.090128    -8.174843    -5.216022
O     0.115578    -9.157237    -5.081528
H     0.264246    -9.523371    -5.953411
H    -2.334629    -8.673974    -2.709824
O    -2.102457    -8.411882    -3.620338
H    -1.456566    -9.031106    -3.979072
H     2.182985    -10.813947    -3.493590
O     2.135923    -9.859371    -3.472083
H     1.348816    -9.591105    -3.997024
H     6.816896     3.335363    -4.618737
O     6.872157     2.655858    -5.319105
H     6.078891     2.789259    -5.858328
H    -3.549114    -3.697311     7.717152
O    -3.665282    -2.911036     7.185249
H    -3.415850    -3.152182     6.267047
H    -0.652906    -3.371256    -6.736026
O    -0.024073    -2.638489    -6.746088
H    -0.507929    -1.863641    -6.406172
H     0.654684     0.493568     8.728704
O     0.661489    -0.223031     8.090108
H    -0.260725    -0.512920     8.005412
H    -5.854309     7.360630    -4.282287
O    -6.357725     6.738082    -4.839433
H    -6.643835     6.011010    -4.243738
H    -4.301938     9.097665    -3.302439
O    -4.840200     8.304475    -3.185756
H    -4.424067     7.826279    -2.450691
H    -9.733043     5.784380    -4.660867
O    -10.265448     4.979492    -4.494456
H    -11.146667     5.179090    -4.812337
H     2.769102     6.544191     6.096341
O     1.809170     6.639462     6.196282
H     1.466366     5.725567     6.096822
H     4.788056     8.563035     0.030630
O     5.107780     8.565892     0.950938
H     5.516717     7.702736     1.082565
H     4.136551    -7.423578    -4.353868
O     3.377366    -7.710104    -4.893719
H     3.098976    -8.550688    -4.515292
H     0.370772     8.680874     4.189329
O     1.048656     8.036161     3.961820
H     1.277297     7.546137     4.777479
H     5.219991     4.199542    -3.202044
O     6.181726     4.167144    -3.150999
H     6.391566     3.589678    -2.400452
H    -2.565289    -1.518547     7.561779
O    -2.055240    -0.724177     7.778284
H    -2.680724    -0.097624     8.152555
H    -9.049579     7.927413    -4.170028
O    -8.988191     7.338803    -4.923832
H    -8.031172     7.176565    -5.062044
H     3.537290    -8.964404     1.085001
O     2.860430    -8.332347     1.332561
H     3.334703    -7.526036     1.610218
H     3.573629     8.190305     1.779403
O     2.785353     7.624482     1.896052
H     2.339504     7.863422     2.721458
N     0.998928     5.738953    -6.167085
H     0.696434     5.257652    -5.388145
H     1.573848     5.111907    -6.618407
