39

H    -4.772277    -2.998427    -2.826466
O    -3.922590    -3.251995    -3.242184
H    -3.598330    -4.040008    -2.760700
H    -3.027977    -1.849645    -3.103676
O    -2.590628    -0.964436    -3.129281
H    -3.275239    -0.335002    -3.434547
H    -1.536359    -0.877371    -4.641786
O    -0.867920    -0.730887    -5.341858
H    -0.237921    -0.113275    -4.939993
H    -3.401069     1.530546    -4.124167
O    -4.257537     1.076921    -3.914807
H    -4.435901     1.234509    -2.950485
H    -1.169788     1.541593    -3.889829
O    -1.857876     2.126980    -4.268734
H    -1.498816     2.540310    -5.081937
H    -5.557669     3.475671    -5.532040
O    -6.080464     2.773856    -5.106390
H    -5.418890     2.224444    -4.638366
H    -5.330382    -0.203358    -4.771377
O    -5.989124    -0.906624    -4.919376
H    -6.826065    -0.425046    -5.058221
H    -4.200865    -3.109905    -4.898475
O    -4.338433    -2.942657    -5.863177
H    -5.063472    -2.290630    -5.864055
H    -2.735727    -4.018322    -6.150166
O    -1.977148    -4.567439    -5.899759
H    -1.714702    -4.264864    -4.997745
H    -1.354647     3.784851    -7.005729
O    -0.862451     3.007968    -6.689435
H    -1.085169     2.225760    -7.247627
H    -0.125713     0.382151    -8.160261
O    -1.021868     0.579887    -7.831884
H    -1.081084     0.129113    -6.963757
H    -0.468877    -3.487760    -6.744491
O     0.155036    -2.756197    -6.856396
H    -0.298740    -2.002707    -6.437806
N    -3.694566    -0.167508    -6.868640
H    -3.560744    -1.118333    -6.765042
H    -3.191965     0.062964    -7.656744
