603

H     0.205983     3.015532    -0.685388
O     0.729836     2.348213    -1.179079
H     1.668534     2.478554    -0.905429
H    -0.065766    -1.331857     3.134442
O     0.325014    -0.631236     2.589981
H    -0.152289     0.182055     2.825459
H    -2.392189     2.391028    -0.545324
O    -2.181175     1.918070     0.277293
H    -2.195962     0.971052     0.049560
H    -4.655113     0.517225     2.166922
O    -4.969818    -0.417186     2.177771
H    -4.464643    -0.891347     1.509297
H     0.074064    -0.327727     0.936377
O    -0.123184    -0.090828     0.009541
H     0.213880     0.807124    -0.109234
H    -0.138700    -3.604629     3.756472
O    -0.420302    -2.776208     4.177362
H     0.224610    -2.604047     4.880102
H    -4.881209     2.502305     1.319793
O    -4.241577     2.091216     1.933528
H    -3.398452     2.077102     1.421361
H    -3.244092     3.881374    -2.217776
O    -2.506169     3.284184    -1.988003
H    -2.146436     3.000059    -2.848390
H    -0.115464    -3.824449     0.480597
O     0.225938    -3.009819     0.898937
H    -0.559980    -2.521411     1.212479
H    -2.366034    -1.566210     2.450190
O    -2.176713    -2.030852     1.607995
H    -2.435697    -1.441400     0.880294
H     2.085693    -1.454181    -1.139036
O     2.316421    -1.710524    -0.222001
H     1.527477    -2.138606     0.160195
H    -1.384761     1.800096     1.901638
O    -1.476139     1.399295     2.776309
H    -1.463357     2.109879     3.443398
H     0.225835    -2.714502    -1.592927
O    -0.534248    -2.108063    -1.642108
H    -0.355129    -1.379567    -1.010031
H    -3.424857    -2.944576    -0.415343
O    -2.706791    -3.429139    -0.844136
H    -1.996850    -2.795983    -1.056906
H     2.780999     0.108110     2.920454
O     2.878974    -0.077946     3.881640
H     2.969439     0.813942     4.289283
H    -3.529602     6.358798    -0.542687
O    -3.291757     7.023339    -1.241067
H    -3.151554     7.867626    -0.768727
H     3.910159     0.569465     1.174457
O     2.959945     0.384831     1.290090
H     2.724509    -0.365215     0.707380
H    -5.772549     0.820745    -1.620107
O    -4.862499     1.148271    -1.491242
H    -4.975152     1.975810    -0.978432
H    -1.211716     5.372157     2.208643
O    -1.835080     4.623887     2.089931
H    -1.912744     4.203470     2.951586
H     3.498695     2.749773     0.418995
O     3.250074     2.708318    -0.520080
H     3.585116     1.867765    -0.872983
H     1.511515    -4.706806    -2.281717
O     1.571559    -3.932927    -1.701528
H     2.365971    -3.467858    -2.049734
H    -0.912294    -0.096147    -2.563642
O    -0.277347     0.556441    -2.885473
H    -0.018339     1.138414    -2.147634
H     1.727240    -4.678878    -0.244640
O     1.841022    -5.347712     0.474019
H     1.298902    -6.114258     0.210435
H    -1.209861    -3.280342    -2.902732
O    -1.035559    -3.966420    -3.560737
H    -0.909642    -4.811650    -3.092774
H    -2.778157     3.275014     4.697326
O    -1.796916     3.272875     4.663371
H    -1.503888     2.870259     5.499141
H     0.961854     5.007986     4.074515
O     0.015342     5.238241     4.126918
H    -0.455275     4.433680     4.382772
H    -1.802188    -4.516354    -0.379305
O    -1.063912    -5.114985    -0.095657
H    -1.444973    -5.603704     0.639220
H    -3.916659     5.815469    -2.599419
O    -4.265608     4.981483    -2.931462
H    -4.110574     4.949759    -3.899791
H    -2.417346    -3.713006     1.913573
O    -2.433647    -4.620274     2.283217
H    -1.494066    -4.853592     2.431762
H    -4.681010    -2.996449    -2.924053
O    -3.827773    -3.227834    -3.329549
H    -3.497490    -4.023003    -2.866706
H     0.344439     1.348108     4.604150
O     0.849738     2.109307     4.272240
H     0.897363     2.766955     4.980538
H    -4.637022    -5.191646    -1.601889
O    -5.338671    -4.839881    -1.027003
H    -5.126596    -5.196273    -0.144057
H     2.387094    -6.425238    -4.081583
O     2.037300    -6.129175    -3.223174
H     2.466668    -6.727620    -2.566665
H     0.483061    -3.386614    -4.030082
O     1.284107    -3.014014    -4.449669
H     0.965462    -2.643231    -5.299058
H     1.976246    -1.775280     2.963658
O     2.130805    -2.705911     2.743806
H     1.446255    -2.916699     2.075305
H    -3.002627    -1.822558    -3.230836
O    -2.581442    -0.936056    -3.161717
H    -3.236989    -0.289997    -3.481164
H    -3.189389     4.950527     1.076836
O    -3.971779     5.323404     0.623118
H    -4.387895     5.879172     1.330477
H     0.880949     2.230705     2.582444
O     0.981355     2.227567     1.611179
H     1.710410     1.607283     1.445606
H     0.191050     5.641763    -0.758217
O     0.711708     6.305533    -1.265375
H     0.852545     7.104348    -0.707746
H     0.340384     7.012366     2.594326
O    -0.021063     6.632970     1.776107
H     0.644421     5.964580     1.512941
H    -2.472583     0.185036     3.325624
O    -2.692133    -0.631870     3.827120
H    -1.932667    -0.669873     4.450418
H    -0.888081     0.519750     6.011219
O    -0.613499     0.001482     5.235958
H     0.101509    -0.600424     5.521799
H     0.727181    -5.012560     1.955108
O     0.180738    -5.132558     2.755237
H     0.327934    -6.053827     3.020845
H    -2.437157    -8.370390     0.839742
O    -2.042036    -7.742202     1.456803
H    -2.802170    -7.255976     1.800917
H    -0.380304     6.851805    -2.322723
O    -1.127377     7.271601    -2.821054
H    -1.917205     7.142834    -2.257799
H    -1.111257     4.289055     0.569829
O    -0.738162     4.352249    -0.326057
H    -1.444470     4.111657    -0.959240
H    -4.405962     2.714170     3.497724
O    -4.404772     2.881842     4.462707
H    -4.487142     1.997762     4.869573
H     2.037737    -3.607186     4.221020
O     1.974775    -4.084124     5.071623
H     2.480075    -3.548262     5.704876
H     4.702612    -3.206357     0.816918
O     4.540888    -3.128582    -0.148782
H     3.681869    -2.651917    -0.231444
H    -2.712923    -0.764964    -1.370548
O    -3.040709    -0.500611    -0.494417
H    -3.841409     0.026030    -0.699426
H    -1.605089    -0.767978    -4.648708
O    -1.098230    -0.549911    -5.451788
H    -0.389264     0.047260    -5.165650
H     1.807845    -1.720664    -3.396819
O     1.897303    -0.977241    -2.768954
H     1.120829    -0.399029    -2.900866
H     3.675038    -3.143004     2.529250
O     4.634259    -3.370156     2.455101
H     4.695088    -4.328909     2.582069
H     3.439747    -6.144606     3.093232
O     3.791435    -5.951926     2.189161
H     3.059358    -5.588074     1.651807
H    -3.336039     1.599428    -4.189686
O    -4.179658     1.125928    -3.999916
H    -4.398238     1.269934    -3.043347
H    -5.079998     4.122072     0.060980
O    -5.517199     3.255505    -0.044600
H    -6.447709     3.374238    -0.326539
H     6.745440    -1.185721    -1.379633
O     5.972714    -1.039165    -0.827514
H     5.555816    -1.908267    -0.632896
H     4.607925    -3.174512    -2.492713
O     3.738484    -3.005052    -2.906572
H     3.745005    -3.620331    -3.666039
H     4.445029    -2.319879     5.602494
O     4.100728    -2.789307     6.392844
H     4.440114    -3.692498     6.310079
H    -0.756235     6.306117     5.076384
O    -1.354073     6.879393     5.615802
H    -1.368778     7.757690     5.176681
H     4.708304    -0.143547    -1.480842
O     3.939339     0.397780    -1.741401
H     3.248627    -0.202967    -2.074521
H    -0.739452     4.515453    -4.040811
O    -1.523238     5.057434    -4.247239
H    -1.373149     5.923476    -3.822850
H     0.664299     3.193856    -2.664634
O     0.670980     3.572694    -3.572090
H     0.720045     2.811031    -4.159765
H    -5.367125    -5.226382     1.762566
O    -4.667038    -5.819659     1.409792
H    -3.830442    -5.398570     1.683940
H     7.893365    -1.687248    -4.051286
O     7.634384    -1.376442    -3.150925
H     7.147010    -0.532715    -3.305864
H     3.718080    -5.072848    -5.317014
O     4.478588    -4.698295    -4.833428
H     4.865544    -5.411339    -4.291560
H    -3.777381    -0.018179     4.918548
O    -4.378535     0.443436     5.552006
H    -5.038063    -0.215926     5.842541
H     3.484015    -5.950146    -0.557608
O     4.361471    -5.701047    -0.859284
H     4.433276    -4.738413    -0.719171
H     5.010877    -0.336384    -4.175074
O     4.475831    -1.047273    -4.566249
H     4.151267    -1.633148    -3.850181
H    -1.164810     1.563034    -3.948615
O    -1.816637     2.183206    -4.332231
H    -1.459724     2.517923    -5.177780
H     4.904346    -6.328182    -2.345795
O     5.237730    -6.647752    -3.212761
H     6.054728    -7.131754    -3.027384
H     8.756686    -5.091096    -2.943969
O     8.066075    -5.510106    -2.386052
H     8.101017    -6.467449    -2.491014
H     2.339699     4.704264     0.449106
O     1.760413     4.683072     1.220221
H     1.404110     3.762347     1.295091
H    -4.404553    -2.668551     4.208791
O    -5.298978    -2.331255     4.005561
H    -5.163338    -1.547587     3.433087
H    -5.833054    -3.226091     1.292474
O    -6.292113    -3.788067     1.959292
H    -6.107189    -3.352835     2.810880
H     1.688146     3.435982     6.856784
O     1.064266     3.951221     6.323777
H     0.281274     4.102561     6.895929
H     5.012246    -2.188448     3.596680
O     5.030240    -1.472930     4.263322
H     4.218080    -0.916808     4.107443
H     2.407532    -5.602349     4.810175
O     2.786630    -6.485942     4.545356
H     2.041321    -7.067896     4.374730
H     2.275353    -4.511872    -6.818011
O     2.107777    -5.002191    -6.003283
H     1.840835    -4.314478    -5.346339
H     6.455148    -4.110672    -0.529300
O     7.207999    -4.513552    -0.065333
H     7.716411    -4.934542    -0.786791
H    -1.725159     4.450491     7.697120
O    -0.826356     4.548737     8.082589
H    -0.646900     5.508175     8.109805
H    -5.117677     5.682611    -5.598168
O    -4.508807     4.920114    -5.619940
H    -3.751968     5.137015    -6.185569
H     3.295500    -2.519090    -8.458463
O     3.207440    -3.052140    -7.657454
H     4.084408    -3.030200    -7.229188
H    -0.664244     8.814207    -2.271475
O    -0.542784     9.641429    -1.750384
H     0.219799     9.466957    -1.174091
H     2.074691    -0.940477     5.195016
O     1.502657    -1.469706     5.780269
H     1.595142    -1.126413     6.678529
H     5.217837    -2.021653    -5.712527
O     5.564923    -2.786281    -6.235850
H     5.291952    -3.578003    -5.720358
H     5.711494    -5.236407     4.659222
O     5.187061    -5.153723     5.485051
H     4.468138    -5.788218     5.398935
H    -3.969403     1.105287     6.994201
O    -3.778065     1.579051     7.839110
H    -4.654781     1.963063     8.100767
H    -1.857348     9.596385    -0.737194
O    -2.717658     9.467262    -0.263202
H    -3.329716     10.095903    -0.649452
H    -5.946626     4.670839    -2.943289
O    -6.855174     4.550775    -3.287435
H    -6.763646     3.850545    -3.966534
H    -0.080427    -7.153884    -1.158056
O     0.287684    -7.533091    -0.316588
H    -0.456970    -7.488309     0.300830
H    -7.634760     3.767682    -1.980534
O    -7.894890     3.178261    -1.241898
H    -7.750851     2.270801    -1.584140
H     3.981794    -0.922208     6.970263
O     3.988328     0.041898     6.962629
H     4.800610     0.334520     6.532776
H     2.258085     5.784813    -1.179937
O     3.193861     5.492784    -1.065944
H     3.371645     4.955422    -1.860766
H     6.570202    -5.938759     0.642949
O     6.202849    -6.674675     1.178607
H     5.296851    -6.400661     1.399540
H    -3.869009     4.686852     7.776858
O    -3.301632     4.226349     7.116753
H    -3.493876     3.282480     7.225009
H     5.784234    -7.954132     0.101934
O     5.500676    -8.639145    -0.537737
H     4.677336    -8.311752    -0.943984
H    -0.554164     2.004654     7.683346
O    -1.187050     1.939704     6.947883
H    -2.055496     1.796974     7.344183
H    -6.375587    -0.149944     1.046246
O    -6.694006    -0.235175     0.132965
H    -7.613321    -0.504171     0.149445
H    -5.360586    -3.086597    -0.613239
O    -5.107769    -2.387585     0.015721
H    -5.678865    -1.614198    -0.168318
H     4.317352     5.565665     0.319766
O     4.650577     5.664119     1.225466
H     3.955511     6.172889     1.678610
H    -9.033144    -1.769547    -2.274457
O    -8.485328    -1.569762    -1.487809
H    -8.612501    -2.307707    -0.851929
H    -5.521043     3.459303    -5.535061
O    -6.037077     2.746595    -5.122090
H    -5.369621     2.161290    -4.709952
H     3.190465    -0.887643    -5.672349
O     2.334321    -1.008330    -6.137445
H     2.422214    -1.855450    -6.614226
H     8.124992    -1.341465    -6.046472
O     8.134177    -2.206051    -5.591245
H     7.279240    -2.607592    -5.843428
H     7.627857     0.999230    -6.321746
O     7.440136     0.151508    -6.736685
H     6.458942     0.100076    -6.773395
H    -7.847416    -3.724890     0.905176
O    -8.525259    -3.616688     0.220639
H    -8.426887    -4.374553    -0.382849
H    -2.412917     8.712957     1.298974
O    -2.261315     8.122689     2.050529
H    -1.490156     7.571543     1.826479
H    -4.446219     6.403550     3.497009
O    -4.616959     6.830905     2.641293
H    -3.854693     7.418730     2.503213
H     3.404048     3.442537    -3.583560
O     3.249150     4.411227    -3.487442
H     2.284309     4.474935    -3.595493
H    -6.105186    -1.623548    -3.461854
O    -6.186961    -2.204827    -2.679080
H    -6.971827    -1.899944    -2.170212
H     6.473459     1.030187     4.728140
O     6.077889     1.566172     5.432309
H     6.264596     2.486023     5.143949
H     1.367325     1.720489    -5.833178
O     1.173553     1.122325    -5.080358
H     1.538783     0.260691    -5.352681
H    -2.487470     2.917175     10.476116
O    -2.273902     2.010608     10.200305
H    -2.871524     1.812027     9.467612
H     7.635765    -0.511472     3.068189
O     6.884401     0.062086     3.238284
H     6.193585    -0.540119     3.616569
H    -5.636795    -8.080642    -0.736593
O    -4.890049    -8.146103    -0.103573
H    -4.903284    -7.333646     0.424641
H    -5.169411    -0.132064    -4.731118
O    -5.785489    -0.844419    -4.971716
H    -6.624136    -0.403517    -5.169663
H     1.898823    -0.195514    -7.530282
O     1.696462     0.278341    -8.372793
H     2.273688    -0.124336    -9.027053
H     4.882833    -1.381479    -9.321852
O     3.957436    -1.152773    -9.603519
H     3.937227    -1.269940    -10.552668
H     7.574677    -2.587900     4.180237
O     7.720633    -2.621042     3.220548
H     7.229905    -3.412726     2.946705
H     6.737916    -5.908561     2.655994
O     6.795887    -5.236439     3.360943
H     7.672630    -5.319681     3.777892
H    -1.827029     8.919495     3.503515
O    -1.579852     9.222056     4.402703
H    -2.428876     9.352631     4.858300
H    -7.384484     1.552392    -5.262808
O    -7.957950     0.806865    -5.018788
H    -8.860464     1.204932    -4.942534
H     6.936519    -1.071217    -8.420860
O     6.354808    -1.791821    -8.686189
H     6.128216    -2.244896    -7.855684
H    -1.677640     6.238280    -7.022861
O    -2.074175     5.411810    -6.750951
H    -1.825614     5.279387    -5.787674
H     0.002299     3.272187     9.016613
O     0.200302     2.351864     9.269004
H    -0.597544     2.085680     9.775218
H     6.767840    -2.781810    -2.725794
O     6.238162    -3.527181    -2.385948
H     6.707567    -4.337099    -2.634716
H    -4.065837    -3.083336    -4.966452
O    -4.220046    -2.968582    -5.930768
H    -4.768472    -2.176262    -5.985540
H     1.983324     2.149489     8.456276
O     2.646721     2.264085     7.766122
H     3.070508     1.394874     7.649243
H    -6.892685    -5.225036    -1.424333
O    -7.807061    -5.496891    -1.670491
H    -7.941941    -5.091813    -2.552287
H    -3.828233     5.220333     5.694814
O    -3.796571     5.989799     5.105342
H    -2.863198     6.285837     5.200456
H    -7.877703     0.064426    -1.982094
O    -7.388234     0.789336    -2.393579
H    -7.616806     0.780896    -3.346915
H     5.845038     0.120244     0.398110
O     5.620816     0.839214     1.021144
H     6.132129     0.643685     1.833297
H    -6.213518     3.268198     7.388934
O    -6.084669     2.747883     8.216142
H    -6.684282     1.986272     8.126257
H     2.690890    -8.164605    -0.680679
O     3.042181    -8.025585    -1.577190
H     2.706935    -8.756125    -2.138857
H    -2.732900    -3.964383    -6.222921
O    -1.978604    -4.530295    -5.992844
H    -1.701825    -4.243581    -5.095116
H    -5.642514     3.724464     5.302927
O    -6.292207     4.118211     5.921158
H    -6.130403     5.062593     5.909984
H    -0.941570    -7.141771    -3.236667
O    -0.480595    -6.484031    -2.682751
H     0.435369    -6.394377    -3.074487
H     4.448338     1.993672     5.119888
O     3.506029     2.230748     5.000109
H     3.121998     2.245747     5.882152
H     4.109326     4.631312     6.298452
O     4.189331     5.362818     5.681891
H     3.621978     5.123459     4.910499
H     2.766705     3.595019     3.917336
O     2.587518     4.535171     3.753675
H     2.468085     4.636128     2.787490
H     9.400679     0.209895    -1.084132
O     8.594309     0.370365    -0.590266
H     8.419994    -0.449977    -0.099167
H    -2.102709     5.276240     10.648920
O    -2.823740     4.645947     10.878653
H    -3.042779     4.821076     11.794086
H     7.985048    -3.016385     0.306760
O     8.403885    -2.169230     0.564179
H     8.338939    -2.167016     1.526483
H     5.372416     3.647536     3.520009
O     6.027958     3.911671     4.187354
H     5.614678     4.628490     4.690364
H    -4.210122     4.977639     9.782053
O    -4.843133     5.128959     9.060022
H    -5.454195     4.379715     9.056240
H    -6.998298    -3.496518    -3.508938
O    -7.617536    -4.109348    -3.957625
H    -7.096162    -4.548651    -4.661318
H     0.024731     6.087789     10.771168
O    -0.840507     6.417876     10.524449
H    -0.725375     6.850989     9.659338
H     2.594915     1.491687    -4.116239
O     3.472554     1.845309    -3.876268
H     3.793887     1.329137    -3.107095
H    -6.966366    -0.261301     7.204022
O    -7.475681     0.516074     7.485856
H    -8.099342     0.700185     6.782370
H    -3.370983    -10.214843    -1.299323
O    -2.968564    -9.340356    -1.293172
H    -3.706601    -8.783992    -0.918080
H    -10.065358     3.056350    -4.906622
O    -10.180746     2.138109    -4.627690
H    -10.397033     2.219986    -3.677878
H    -2.056666    -3.054032     4.592837
O    -2.930618    -3.495968     4.661468
H    -2.924905    -4.112277     3.904565
H    -0.060430    -8.197053     2.778363
O     0.772749    -7.779390     3.010745
H     1.442150    -8.115383     2.385695
H     6.716578    -2.397271     6.373802
O     7.166261    -3.105514     5.908213
H     6.537666    -3.841331     5.869038
H    -5.263172    -2.042846     6.924479
O    -5.939862    -1.544742     6.441164
H    -5.923654    -1.920015     5.531481
H     0.839917     3.033461    -7.122100
O     1.757797     2.703532    -7.178198
H     1.745382     1.957767    -7.806225
H    -3.960864     8.719886     6.678216
O    -3.958590     8.719635     5.720851
H    -4.082802     7.792565     5.451165
H    -2.066720     10.301047    -2.728231
O    -2.968739     10.481658    -3.029506
H    -2.898292     11.117476    -3.740882
H     9.423770    -4.075441     4.021464
O     9.142978    -4.754785     4.642251
H     8.714952    -4.283778     5.368103
H    -0.718546    -5.991516    -5.880988
O    -0.018218    -6.554144    -5.535908
H     0.820577    -6.101620    -5.756466
H     1.821272     8.259802     0.669215
O     1.517349     8.582832    -0.207671
H     2.331932     8.623504    -0.738130
H     3.502103     2.933257    -6.669863
O     4.330106     2.643474    -6.261136
H     4.085393     2.367274    -5.352977
H     3.730745     7.116298    -1.227681
O     3.935017     8.052761    -1.439049
H     4.304409     7.999240    -2.332473
H     4.403402    -0.000493    -7.925956
O     4.779272     0.144600    -7.055796
H     4.596811     1.075973    -6.810930
H     6.035421     1.925866    -0.484780
O     6.600219     2.121270    -1.246280
H     7.425647     1.642472    -1.053629
H     6.705702    -8.436086    -1.641332
O     7.342453    -8.219952    -2.376124
H     7.702778    -9.054028    -2.673158
H    -5.284263    -5.800867    -5.436308
O    -5.903070    -5.128454    -5.746698
H    -5.353788    -4.359167    -5.984132
H     0.679064     7.141104     7.603426
O    -0.222545     7.166014     7.962924
H    -0.778069     7.182223     7.145511
H    -8.886309    -2.853126    -4.123807
O    -9.407144    -2.045538    -3.953558
H    -9.123014    -1.378929    -4.582747
H    -2.403489    -5.879018    -2.288530
O    -3.322632    -5.701562    -2.514218
H    -3.488265    -6.044157    -3.423735
H    -2.971154    -5.908952    -5.437470
O    -3.565879    -6.521404    -4.962176
H    -3.079242    -7.341467    -4.805766
H    -1.388086     3.724439    -6.988806
O    -0.847252     2.968655    -6.719066
H    -1.082534     2.184602    -7.271283
H    -0.196784     0.419668    -8.229708
O    -1.093002     0.653242    -7.945354
H    -1.267623     0.127148    -7.149067
H    -10.421496     4.028616    -2.739819
O    -10.487460     3.248441    -2.173553
H    -9.658245     3.222590    -1.664515
H     4.581416     4.066515     1.715827
O     4.374554     3.144302     1.991737
H     5.091749     2.570602     1.709380
H     6.491133     1.399963    -4.230736
O     6.188510     0.774169    -3.537975
H     6.219420     1.267912    -2.693220
H     9.643688    -2.227236    -0.948684
O     9.920098    -2.008797    -1.847494
H     9.118918    -1.671876    -2.290677
H     9.981892    -3.316323    -3.120758
O     9.714995    -3.967350    -3.796498
H     9.321041    -3.459228    -4.516199
H    -7.679868    -8.598045    -1.702044
O    -6.941067    -8.003173    -1.821666
H    -7.319958    -7.090485    -1.813848
H     4.159527     6.079112    -3.821421
O     4.819465     6.781140    -3.734273
H     5.656479     6.328196    -3.598430
H     0.112046    -8.136460    -5.473067
O     0.127544    -9.117909    -5.339368
H     0.375376    -9.475685    -6.196679
H    -2.461201    -8.839925    -3.033226
O    -2.056473    -8.401940    -3.806140
H    -1.537224    -9.039718    -4.316987
H     1.232326    -10.168323    -2.531447
O     1.865795    -9.883051    -3.221499
H     1.296864    -9.585612    -3.955573
H     6.838611     3.334114    -4.581343
O     6.897464     2.657169    -5.283290
H     6.104132     2.790590    -5.824109
H    -3.552379    -3.760716     7.698835
O    -3.667798    -2.972218     7.170079
H    -3.416178    -3.208893     6.251513
H    -0.624820    -3.364293    -6.747458
O     0.004431    -2.631986    -6.751043
H    -0.479124    -1.857711    -6.409601
H     0.648552     0.425580     8.739054
O     0.656409    -0.287888     8.096936
H    -0.265706    -0.577126     8.009219
H    -5.837225     7.353935    -4.249377
O    -6.339107     6.735381    -4.811688
H    -6.625360     6.003105    -4.221967
H    -4.284614     9.088949    -3.257232
O    -4.818919     8.291628    -3.152682
H    -4.409836     7.811335    -2.414702
H    -9.712818     5.778053    -4.647162
O    -10.244892     4.972145    -4.485421
H    -11.125743     5.172428    -4.803960
H     2.766356     6.489756     6.140853
O     1.806108     6.584455     6.238915
H     1.463878     5.670932     6.134384
H     4.798623     8.537958     0.089224
O     5.115668     8.536994     1.010282
H     5.524454     7.673268     1.139065
H     4.149521    -7.439497    -4.363331
O     3.380815    -7.717673    -4.895072
H     3.111174    -8.566411    -4.536987
H     0.371768     8.634904     4.239598
O     1.050136     7.991488     4.009984
H     1.277594     7.497495     4.823652
H     5.236603     4.189742    -3.162454
O     6.198068     4.161086    -3.109667
H     6.407984     3.578253    -2.363237
H    -2.569182    -1.581180     7.555794
O    -2.059555    -0.787824     7.776714
H    -2.685582    -0.163121     8.153183
H    -9.032002     7.918281    -4.143079
O    -8.968042     7.334788    -4.900636
H    -8.010749     7.172958    -5.036660
H     3.662529    -8.971121     1.257203
O     2.980449    -8.292951     1.271070
H     3.456129    -7.479912     1.567288
H     3.579746     8.156935     1.833510
O     2.790187     7.591808     1.944825
H     2.343601     7.825364     2.771367
N     0.220865    -10.186652    -0.985351
H     0.284760    -9.238786    -0.721943
H    -0.726909    -10.312715    -1.090744
