18

H    -2.128149    -8.006441     0.440674
O    -1.734599    -7.548548     1.213991
H    -2.465070    -7.212257     1.736662
H    -5.914467    -7.978666    -0.542120
O    -5.047111    -8.037365    -0.069718
H    -5.012075    -7.270449     0.531212
H    -2.888144    -9.648264    -0.753800
O    -2.650247    -8.778486    -1.124392
H    -3.512008    -8.313602    -1.054892
H    -8.113659    -8.364446    -0.903416
O    -7.385505    -8.025692    -1.431944
H    -7.632980    -7.076753    -1.588566
H    -2.202086    -8.748316    -2.896617
O    -1.990160    -8.407665    -3.786046
H    -1.306070    -8.961102    -4.189905
N    -3.994783    -10.586457     0.481562
H    -4.586125    -9.807777     0.473883
H    -4.550000    -11.324700     0.216657
