33

H     6.652382    -1.245152    -1.348545
O     5.900100    -1.051030    -0.782441
H     5.451687    -1.908080    -0.582355
H     7.855925    -1.740466    -4.069226
O     7.678161    -1.371813    -3.165349
H     7.194728    -0.524848    -3.328572
H     8.170605    -1.498747    -6.076996
O     8.122523    -2.348221    -5.606887
H     7.227844    -2.672031    -5.850260
H     7.663165     0.986521    -6.753783
O     7.390838     0.072752    -6.877370
H     6.402818     0.097078    -6.825997
H     9.252376     0.423843    -0.951643
O     8.533094     0.500458    -0.316879
H     8.430796    -0.398349     0.043548
H     5.916481     1.927777    -0.401387
O     6.436537     2.163755    -1.189551
H     7.291373     1.726436    -0.998851
H     6.349030     1.450058    -4.204454
O     6.171730     0.768890    -3.526041
H     6.064448     1.250940    -2.675496
H     9.660129    -2.253666    -0.954874
O     9.976307    -1.997321    -1.831307
H     9.180196    -1.614775    -2.258849
H     6.611488     3.470971    -4.448777
O     6.825215     2.853631    -5.192246
H     6.044881     2.929491    -5.767474
H     5.089055     4.312341    -3.098251
O     6.051792     4.293253    -2.999013
H     6.204608     3.702554    -2.235462
N     9.156156     1.968685    -3.044580
H     8.623278     2.096983    -3.838481
H     9.726762     2.741366    -3.016251
