24

H     2.393427    -6.532448    -3.943529
O     2.047385    -6.199263    -3.104994
H     2.447773    -6.803365    -2.439556
H     3.767653    -5.019153    -5.243174
O     4.533549    -4.671230    -4.748741
H     4.912464    -5.374238    -4.190195
H     2.302137    -4.390216    -6.754078
O     2.153093    -4.911418    -5.948773
H     1.893482    -4.214828    -5.282800
H    -0.802486    -5.872473    -5.909801
O    -0.091953    -6.450161    -5.598715
H     0.725879    -5.934560    -5.745331
H     0.062506    -8.098983    -5.149377
O     0.237026    -9.066796    -5.044565
H     0.715670    -9.242444    -5.874255
H     2.340848    -10.720836    -3.561698
O     2.196364    -9.781481    -3.443581
H     1.392636    -9.514371    -3.977908
H     4.319792    -7.492055    -4.339341
O     3.559675    -7.833661    -4.847673
H     3.272076    -8.621006    -4.339858
N     2.082790    -8.688834    -7.131195
H     1.688564    -7.926155    -7.567214
H     2.749521    -8.300001    -6.535679
