603

H     0.200874     3.009500    -0.680671
O     0.726264     2.342584    -1.172846
H     1.664735     2.475592    -0.899557
H    -0.054686    -1.319447     3.161475
O     0.332125    -0.618284     2.614401
H    -0.148605     0.193417     2.846903
H    -2.396470     2.377410    -0.536003
O    -2.184783     1.910811     0.289876
H    -2.192385     0.962257     0.068057
H    -4.651858     0.512586     2.189223
O    -4.966525    -0.421861     2.201810
H    -4.453032    -0.899263     1.541938
H     0.078341    -0.327060     0.958565
O    -0.123579    -0.091800     0.032150
H     0.216329     0.804187    -0.091249
H    -0.125352    -3.588082     3.793545
O    -0.406647    -2.757562     4.212418
H     0.239469    -2.584121     4.913461
H    -4.883519     2.492625     1.331443
O    -4.242829     2.086592     1.947037
H    -3.399702     2.071119     1.434533
H    -3.254011     3.856870    -2.215476
O    -2.514387     3.263107    -1.983216
H    -2.154159     2.974956    -2.842046
H    -0.093685    -3.825876     0.525966
O     0.242506    -3.001807     0.935867
H    -0.546913    -2.520051     1.248066
H    -2.356754    -1.562637     2.481197
O    -2.169832    -2.030345     1.640864
H    -2.425917    -1.443818     0.910327
H     2.091574    -1.459231    -1.111375
O     2.324466    -1.705994    -0.192771
H     1.538413    -2.138881     0.192102
H    -1.383197     1.804251     1.913854
O    -1.476304     1.408518     2.790535
H    -1.462589     2.122141     3.454126
H     0.230931    -2.730318    -1.555903
O    -0.526559    -2.120422    -1.612248
H    -0.349152    -1.392955    -0.979209
H    -3.406558    -2.964650    -0.374925
O    -2.697452    -3.455773    -0.809808
H    -1.982674    -2.826412    -1.018256
H     2.785969     0.128641     2.938171
O     2.886012    -0.050152     3.900468
H     2.973954     0.844146     4.302337
H    -3.545204     6.342567    -0.553162
O    -3.310604     7.004022    -1.255669
H    -3.171702     7.851129    -0.788027
H     3.912348     0.583250     1.188969
O     2.962409     0.398645     1.305474
H     2.728337    -0.357318     0.729109
H    -5.773059     0.793634    -1.597172
O    -4.863948     1.124898    -1.473701
H    -4.976986     1.954628    -0.964465
H    -1.222037     5.377626     2.201472
O    -1.844070     4.627589     2.087345
H    -1.918877     4.210676     2.951008
H     3.494040     2.758296     0.421983
O     3.245657     2.712042    -0.516909
H     3.581929     1.869913    -0.865292
H     1.520212    -4.719217    -2.229122
O     1.582495    -3.936960    -1.662002
H     2.375943    -3.476272    -2.015199
H    -0.907524    -0.118104    -2.539052
O    -0.280143     0.538625    -2.867549
H    -0.019710     1.123360    -2.132495
H     1.731093    -4.700865    -0.158873
O     1.842936    -5.334010     0.585506
H     1.380368    -6.148648     0.292791
H    -1.197853    -3.309534    -2.862866
O    -1.029871    -3.995807    -3.522104
H    -0.904323    -4.841581    -3.048758
H    -2.780337     3.289894     4.703075
O    -1.799245     3.291475     4.668267
H    -1.503894     2.893034     5.505270
H     0.954140     5.030123     4.067235
O     0.006992     5.258170     4.119277
H    -0.460892     4.453479     4.379864
H    -1.696984    -4.688027    -0.352119
O    -0.927314    -5.209475    -0.049130
H    -1.270155    -5.916679     0.508253
H    -3.932316     5.786927    -2.606048
O    -4.280073     4.950848    -2.934155
H    -4.124129     4.914129    -3.902038
H    -2.399660    -3.716117     1.955555
O    -2.417360    -4.617132     2.337969
H    -1.476324    -4.857144     2.470186
H    -4.668960    -3.029245    -2.879859
O    -3.820613    -3.254153    -3.297865
H    -3.474755    -4.044575    -2.839013
H     0.348219     1.370762     4.617319
O     0.848978     2.133037     4.280513
H     0.896870     2.793465     4.986038
H    -4.575357    -5.153265    -1.495353
O    -5.313217    -4.861788    -0.916172
H    -5.061721    -5.200381    -0.033106
H     2.365769    -6.504338    -4.016046
O     2.030282    -6.171392    -3.163888
H     2.463781    -6.743903    -2.499263
H     0.491176    -3.413776    -3.988899
O     1.289823    -3.039202    -4.412497
H     0.969731    -2.672785    -5.262625
H     1.985211    -1.756585     2.991449
O     2.144864    -2.687282     2.777312
H     1.459889    -2.907144     2.111103
H    -2.994022    -1.850546    -3.197814
O    -2.577151    -0.961867    -3.135047
H    -3.235544    -0.319921    -3.455736
H    -3.199497     4.944087     1.073474
O    -3.983501     5.312341     0.618496
H    -4.400289     5.870728     1.323435
H     0.879959     2.244115     2.590207
O     0.980093     2.237240     1.618928
H     1.709826     1.616738     1.456119
H     0.177458     5.635148    -0.768204
O     0.695247     6.298017    -1.279610
H     0.834715     7.099871    -0.726097
H     0.325701     7.024289     2.576774
O    -0.035425     6.639954     1.760738
H     0.631429     5.971542     1.500762
H    -2.466463     0.194011     3.348009
O    -2.685616    -0.619398     3.855082
H    -1.924255    -0.654964     4.476214
H    -0.880889     0.545961     6.030550
O    -0.605561     0.026199     5.256914
H     0.111219    -0.573550     5.544200
H     0.742178    -5.008253     1.999244
O     0.202655    -5.115414     2.806011
H     0.347710    -6.036793     3.076922
H    -2.075709    -8.096755     0.476763
O    -1.734894    -7.624312     1.274770
H    -2.517230    -7.323352     1.742811
H    -0.398703     6.835072    -2.338528
O    -1.147513     7.250052    -2.838658
H    -1.936363     7.121924    -2.273977
H    -1.119933     4.285790     0.568626
O    -0.748240     4.346243    -0.328023
H    -1.453970     4.098944    -0.959086
H    -4.407172     2.717448     3.507878
O    -4.406692     2.890763     4.471858
H    -4.485150     2.008529     4.883686
H     2.054059    -3.583131     4.259294
O     1.992100    -4.051394     5.114803
H     2.498658    -3.511252     5.742647
H     4.714628    -3.192693     0.851971
O     4.553966    -3.118913    -0.114712
H     3.692108    -2.647339    -0.198839
H    -2.706557    -0.785672    -1.340675
O    -3.038027    -0.515169    -0.468049
H    -3.838232     0.009641    -0.677502
H    -1.601708    -0.800852    -4.620309
O    -1.099044    -0.585175    -5.426971
H    -0.390096     0.014312    -5.145294
H     1.812518    -1.738438    -3.365658
O     1.902365    -0.987557    -2.746949
H     1.122194    -0.415102    -2.879397
H     3.690562    -3.119539     2.563213
O     4.650630    -3.344304     2.490893
H     4.707810    -4.304616     2.618061
H     3.467261    -6.117968     3.143983
O     3.822663    -5.914480     2.244473
H     3.081605    -5.579217     1.699191
H    -3.340853     1.562650    -4.175360
O    -4.184452     1.089560    -3.982499
H    -4.400972     1.238044    -3.026013
H    -5.087176     4.105054     0.064448
O    -5.522965     3.237188    -0.037522
H    -6.453948     3.352976    -0.317796
H     6.750468    -1.178190    -1.356773
O     5.977713    -1.029259    -0.805505
H     5.562362    -1.898280    -0.604466
H     4.617974    -3.176865    -2.458105
O     3.749892    -3.009599    -2.875275
H     3.754933    -3.632877    -3.627825
H     4.460680    -2.279381     5.631427
O     4.120912    -2.743425     6.426780
H     4.458589    -3.647701     6.346918
H    -0.766772     6.328400     5.063581
O    -1.365831     6.903247     5.600223
H    -1.383093     7.778969     5.156312
H     4.710512    -0.140855    -1.462627
O     3.940640     0.397526    -1.726928
H     3.250750    -0.207570    -2.054149
H    -0.752802     4.487921    -4.043652
O    -1.538167     5.026928    -4.252637
H    -1.389881     5.895510    -3.832800
H     0.656226     3.178343    -2.661574
O     0.660135     3.552219    -3.571401
H     0.711810     2.787074    -4.154341
H    -5.350705    -5.213046     1.824382
O    -4.654053    -5.809388     1.471753
H    -3.809624    -5.402000     1.745365
H     7.898436    -1.688719    -4.027597
O     7.640322    -1.373560    -3.128776
H     7.149139    -0.532737    -3.287307
H     3.732286    -5.092999    -5.270906
O     4.493824    -4.713950    -4.792659
H     4.881251    -5.421590    -4.244328
H    -3.768848    -0.004200     4.943405
O    -4.372248     0.458925     5.574403
H    -5.028560    -0.201734     5.869077
H     3.500465    -5.951464    -0.500738
O     4.373200    -5.700627    -0.816203
H     4.443820    -4.737596    -0.676287
H     5.011104    -0.348015    -4.156159
O     4.478100    -1.061948    -4.544279
H     4.155845    -1.646227    -3.824981
H    -1.171136     1.534597    -3.933426
O    -1.825061     2.150298    -4.321752
H    -1.468173     2.481645    -5.168485
H     4.922065    -6.329241    -2.293339
O     5.258327    -6.652404    -3.158364
H     6.076794    -7.131772    -2.969960
H     8.772517    -5.084754    -2.903100
O     8.083522    -5.502997    -2.342685
H     8.120900    -6.460582    -2.441922
H     2.329904     4.710057     0.442715
O     1.750608     4.692129     1.213844
H     1.397902     3.770245     1.294879
H    -4.389446    -2.662996     4.247334
O    -5.285167    -2.327847     4.043330
H    -5.151264    -1.546624     3.467446
H    -5.821665    -3.235919     1.336097
O    -6.288645    -3.787031     2.006848
H    -6.094977    -3.350521     2.856146
H     1.687638     3.475148     6.857365
O     1.062005     3.986572     6.322613
H     0.278785     4.137677     6.894306
H     5.023999    -2.158874     3.625359
O     5.042062    -1.437841     4.286883
H     4.227626    -0.886068     4.129125
H     2.427327    -5.575032     4.858482
O     2.812358    -6.457113     4.601717
H     2.070479    -7.042345     4.425665
H     2.286779    -4.542744    -6.773495
O     2.119303    -5.031115    -5.957646
H     1.851963    -4.342263    -5.301733
H     6.468178    -4.098745    -0.488804
O     7.224691    -4.495406    -0.025466
H     7.732568    -4.918949    -0.745345
H    -1.728277     4.484772     7.694887
O    -0.829819     4.588007     8.079735
H    -0.652878     5.547963     8.100936
H    -5.135466     5.634363    -5.603711
O    -4.525454     4.872787    -5.622658
H    -3.768748     5.089045    -6.188817
H     3.300787    -2.556341    -8.426040
O     3.214193    -3.086944    -7.623312
H     4.090683    -3.059884    -7.194179
H    -0.688183     8.796847    -2.297803
O    -0.568759     9.627378    -1.781473
H     0.194742     9.458097    -1.204736
H     2.085324    -0.909235     5.218597
O     1.514087    -1.434367     5.808151
H     1.608898    -1.087074     6.704417
H     5.222081    -2.040079    -5.684329
O     5.571282    -2.806088    -6.204644
H     5.301062    -3.595998    -5.684503
H     5.731891    -5.197401     4.703299
O     5.210274    -5.112342     5.530408
H     4.491200    -5.747478     5.446834
H    -3.963333     1.129482     7.012186
O    -3.772988     1.608771     7.854414
H    -4.650520     1.991216     8.114711
H    -1.882209     9.583820    -0.766971
O    -2.741949     9.454946    -0.291823
H    -3.355913     10.079920    -0.680942
H    -5.959098     4.635013    -2.942761
O    -6.867773     4.509839    -3.285134
H    -6.774499     3.806420    -3.960588
H     0.137242    -7.092381    -1.115879
O     0.607449    -7.513210    -0.361104
H    -0.075890    -7.721928     0.279369
H    -7.643714     3.732356    -1.973499
O    -7.903243     3.145941    -1.232179
H    -7.754836     2.237392    -1.568982
H     3.993108    -0.875507     6.992347
O     3.997605     0.088716     6.980812
H     4.808226     0.380644     6.547427
H     2.243654     5.781659    -1.192432
O     3.180558     5.493796    -1.077942
H     3.359176     4.951778    -1.869417
H     6.587376    -5.921065     0.691428
O     6.222824    -6.656680     1.228519
H     5.316724    -6.383192     1.454150
H    -3.872922     4.715353     7.775287
O    -3.305008     4.253174     7.116993
H    -3.493446     3.309142     7.230938
H     5.806003    -7.941713     0.162520
O     5.522193    -8.631500    -0.473593
H     4.688884    -8.313589    -0.866048
H    -0.549667     2.041879     7.693478
O    -1.183497     1.973006     6.959309
H    -2.050756     1.827977     7.357180
H    -6.365473    -0.166702     1.069921
O    -6.690319    -0.259058     0.159047
H    -7.609844    -0.525857     0.184931
H    -5.346571    -3.112715    -0.576018
O    -5.101704    -2.411642     0.051957
H    -5.672484    -1.638882    -0.134848
H     4.304893     5.576774     0.306675
O     4.638947     5.682114     1.211268
H     3.942245     6.190200     1.662533
H    -9.028524    -1.811853    -2.233648
O    -8.479781    -1.606668    -1.449778
H    -8.602906    -2.341487    -0.809780
H    -5.533238     3.410096    -5.527786
O    -6.046502     2.697357    -5.111267
H    -5.376116     2.117514    -4.695688
H     3.191470    -0.912455    -5.647734
O     2.336039    -1.036714    -6.113626
H     2.425057    -1.887113    -6.584097
H     8.126964    -1.353643    -6.024915
O     8.139450    -2.216096    -5.565796
H     7.284798    -2.620881    -5.814000
H     7.623299     0.984145    -6.311713
O     7.437913     0.134129    -6.723020
H     6.456795     0.079240    -6.757703
H    -7.832374    -3.741521     0.955570
O    -8.507928    -3.650226     0.265211
H    -8.401204    -4.416198    -0.323632
H    -2.433278     8.710034     1.274398
O    -2.279747     8.124318     2.029060
H    -1.507077     7.574048     1.807746
H    -4.458331     6.406822     3.486668
O    -4.631232     6.829162     2.628837
H    -3.870580     7.418178     2.486855
H     3.394322     3.429796    -3.583803
O     3.236580     4.398696    -3.493396
H     2.271413     4.458664    -3.600623
H    -6.099560    -1.663702    -3.426538
O    -6.186165    -2.245561    -2.644378
H    -6.965204    -1.931990    -2.131761
H     6.477248     1.070997     4.738059
O     6.081475     1.610693     5.439391
H     6.265679     2.529074     5.145246
H     1.360842     1.689311    -5.822565
O     1.168181     1.094796    -5.066905
H     1.537193     0.232869    -5.333359
H    -2.484071     2.964780     10.482789
O    -2.268311     2.057158     10.212390
H    -2.865346     1.852657     9.480832
H     7.642203    -0.476757     3.085630
O     6.890081     0.096501     3.253551
H     6.200601    -0.505948     3.634987
H    -5.792755    -8.113468    -0.249479
O    -5.080913    -8.236502     0.409735
H    -4.988607    -7.374826     0.856242
H    -5.169497    -0.175443    -4.702459
O    -5.785078    -0.889969    -4.939369
H    -6.624023    -0.450347    -5.139251
H     1.896748    -0.233522    -7.509289
O     1.691752     0.234940    -8.354497
H     2.270336    -0.169144    -9.006662
H     4.883263    -1.419815    -9.296679
O     3.957198    -1.194942    -9.579632
H     3.936807    -1.318298    -10.527949
H     7.588698    -2.546424     4.208483
O     7.735036    -2.584279     3.249004
H     7.245238    -3.378347     2.979771
H     6.757840    -5.877910     2.703896
O     6.818752    -5.200228     3.402969
H     7.695155    -5.281809     3.819985
H    -1.846578     8.930313     3.477293
O    -1.599778     9.239061     4.374471
H    -2.448870     9.368977     4.830127
H    -7.389658     1.499220    -5.243326
O    -7.961598     0.753212    -4.996479
H    -8.864670     1.150496    -4.920386
H     6.935879    -1.099624    -8.399256
O     6.356480    -1.823595    -8.660530
H     6.131218    -2.272309    -7.827128
H    -1.698310     6.192014    -7.034027
O    -2.093063     5.366359    -6.757081
H    -1.842452     5.239518    -5.793377
H     0.003594     3.318815     9.019527
O     0.204813     2.400801     9.277532
H    -0.591987     2.134629     9.785235
H     6.777592    -2.780103    -2.695071
O     6.250067    -3.524936    -2.351351
H     6.720845    -4.335176    -2.595498
H    -4.060718    -3.118016    -4.928281
O    -4.223215    -3.009929    -5.893205
H    -4.763441    -2.212083    -5.949152
H     1.987640     2.197836     8.463622
O     2.650250     2.311345     7.772567
H     3.076339     1.442639     7.659338
H    -6.823911    -5.298163    -1.323102
O    -7.740687    -5.585596    -1.586637
H    -7.847674    -5.149202    -2.463411
H    -3.835027     5.237702     5.690161
O    -3.806316     6.004340     5.096776
H    -2.873519     6.303108     5.189171
H    -7.877157     0.029074    -1.953842
O    -7.389220     0.751252    -2.371357
H    -7.619089     0.737527    -3.324137
H     5.847661     0.136036     0.413876
O     5.623364     0.858752     1.032677
H     6.135007     0.667893     1.845810
H    -6.213935     3.288056     7.396647
O    -6.083312     2.773188     8.226964
H    -6.680058     2.008819     8.141716
H     2.313463    -8.085676    -0.819196
O     2.997659    -8.076150    -1.509088
H     2.774615    -8.790006    -2.123570
H    -2.719293    -3.977492    -6.183222
O    -1.971794    -4.552455    -5.953062
H    -1.693066    -4.277526    -5.050105
H    -5.645574     3.734035     5.308367
O    -6.296643     4.129772     5.924066
H    -6.135870     5.074284     5.908955
H    -0.900770    -7.185720    -3.069937
O    -0.461542    -6.468177    -2.578564
H     0.442845    -6.373729    -2.973204
H     4.450185     2.031628     5.125899
O     3.507562     2.267433     5.006044
H     3.123975     2.283620     5.888231
H     4.104849     4.674310     6.290302
O     4.181438     5.403262     5.670257
H     3.614508     5.157637     4.900482
H     2.762901     3.621824     3.916638
O     2.580673     4.560530     3.747591
H     2.460373     4.655230     2.780926
H     9.402377     0.227259    -1.072102
O     8.596503     0.389138    -0.577940
H     8.423952    -0.429129    -0.082580
H    -2.105548     5.325992     10.642420
O    -2.824817     4.695217     10.876311
H    -3.042875     4.874181     11.791222
H     7.996743    -2.994233     0.337025
O     8.414611    -2.144929     0.589417
H     8.349385    -2.137764     1.551754
H     5.368219     3.678919     3.516609
O     6.023900     3.949852     4.181150
H     5.608313     4.667425     4.681083
H    -4.212896     5.016384     9.779062
O    -4.847449     5.162010     9.057200
H    -5.455739     4.410493     9.057804
H    -6.969185    -3.464327    -3.423270
O    -7.570017    -4.108490    -3.869136
H    -7.050006    -4.441076    -4.633617
H     0.019387     6.143624     10.758629
O    -0.846704     6.470785     10.510976
H    -0.733297     6.898848     9.643104
H     2.590532     1.473281    -4.104479
O     3.467152     1.831467    -3.868075
H     3.791084     1.319897    -3.096525
H    -6.955558    -0.244922     7.232543
O    -7.467658     0.532058     7.510688
H    -8.091857     0.710676     6.806277
H    -2.681772    -9.798461    -0.520588
O    -2.792977    -8.875679    -0.763660
H    -3.697348    -8.636858    -0.416659
H    -10.074709     2.996038    -4.895160
O    -10.187417     2.079495    -4.609507
H    -10.402414     2.168329    -3.659806
H    -2.040672    -3.037299     4.632807
O    -2.914718    -3.479265     4.703729
H    -2.903712    -4.101665     3.950698
H    -0.134846    -7.992393     2.512467
O     0.690041    -7.779712     2.963920
H     1.409124    -8.074141     2.377786
H     6.730623    -2.347368     6.401692
O     7.183573    -3.056362     5.940388
H     6.556868    -3.794144     5.903803
H    -5.247617    -2.023268     6.960686
O    -5.926748    -1.530060     6.475508
H    -5.909274    -1.910202     5.567829
H     0.828834     2.994218    -7.118082
O     1.747742     2.667390    -7.174057
H     1.736860     1.917266    -7.796914
H    -3.976484     8.742050     6.654806
O    -3.976305     8.736576     5.697444
H    -4.097120     7.807433     5.433186
H    -2.095610     10.276949    -2.761318
O    -2.998198     10.453580    -3.063345
H    -2.929554     11.085995    -3.777915
H     9.441410    -4.027803     4.056229
O     9.166834    -4.704890     4.682210
H     8.734370    -4.232200     5.404353
H    -0.702558    -6.035474    -5.814837
O     0.001959    -6.600631    -5.484211
H     0.836347    -6.137549    -5.699200
H     1.801122     8.265780     0.643485
O     1.495618     8.583472    -0.234892
H     2.309719     8.623082    -0.766174
H     3.491628     2.904423    -6.667002
O     4.320831     2.619375    -6.257459
H     4.077564     2.346805    -5.347655
H     3.712437     7.117476    -1.248464
O     3.913817     8.053405    -1.465331
H     4.282825     7.995731    -2.358651
H     4.400072    -0.032944    -7.908330
O     4.777228     0.117914    -7.039754
H     4.591769     1.049729    -6.798957
H     6.032911     1.937014    -0.479345
O     6.596783     2.130843    -1.242067
H     7.423386     1.654808    -1.047515
H     6.728463    -8.427644    -1.578865
O     7.364879    -8.217096    -2.315424
H     7.730161    -9.051792    -2.603833
H    -5.349873    -5.727833    -5.637897
O    -5.957160    -5.024646    -5.910499
H    -5.351233    -4.270180    -6.073892
H     0.668351     7.181474     7.584546
O    -0.233021     7.206692     7.944716
H    -0.789238     7.216144     7.127672
H    -8.875403    -2.908649    -4.081873
O    -9.398712    -2.103305    -3.915208
H    -9.118385    -1.436409    -4.545947
H    -2.398727    -5.839801    -2.196399
O    -3.318480    -5.705089    -2.461772
H    -3.406736    -6.012519    -3.393129
H    -2.937512    -5.852492    -5.514551
O    -3.518316    -6.497102    -5.054838
H    -2.943491    -7.271435    -4.882562
H    -1.401678     3.679409    -6.986691
O    -0.858320     2.926684    -6.713666
H    -1.091684     2.138969    -7.261277
H    -0.200987     0.372067    -8.210456
O    -1.098356     0.603136    -7.927444
H    -1.269009     0.082402    -7.126698
H    -10.432607     3.980161    -2.731909
O    -10.494985     3.201790    -2.162743
H    -9.665405     3.182025    -1.653715
H     4.575389     4.085650     1.710586
O     4.370520     3.164980     1.992257
H     5.088182     2.590544     1.712367
H     6.487224     1.393159    -4.222072
O     6.186844     0.770178    -3.526091
H     6.216834     1.268003    -2.683656
H     9.652371    -2.207910    -0.923396
O     9.927776    -1.993812    -1.823661
H     9.125289    -1.660997    -2.267713
H     9.991859    -3.307468    -3.089143
O     9.727764    -3.962666    -3.762119
H     9.330528    -3.459244    -4.483338
H    -7.603789    -8.668279    -1.653694
O    -6.870346    -8.051580    -1.728359
H    -7.294087    -7.136010    -1.738113
H     4.142294     6.067150    -3.836542
O     4.800258     6.771688    -3.754485
H     5.638554     6.321899    -3.615961
H     0.130931    -8.218174    -5.169240
O     0.180153    -9.200998    -5.065639
H     0.366465    -9.536036    -5.942866
H    -2.824157    -8.781127    -3.340430
O    -2.050048    -8.394045    -3.795438
H    -1.525289    -9.101961    -4.188911
H     2.232101    -10.836153    -3.450601
O     2.192170    -9.880984    -3.442714
H     1.399364    -9.616042    -3.962782
H     6.828587     3.326288    -4.583549
O     6.889371     2.646473    -5.282576
H     6.094647     2.773985    -5.822758
H    -3.530770    -3.731567     7.742721
O    -3.650524    -2.946478     7.209821
H    -3.397709    -3.187413     6.292200
H    -0.614654    -3.404193    -6.708260
O     0.010215    -2.668322    -6.719525
H    -0.474996    -1.895427    -6.377196
H     0.656951     0.473156     8.757969
O     0.667370    -0.243313     8.119365
H    -0.253377    -0.537194     8.033267
H    -5.858449     7.311250    -4.263321
O    -6.359592     6.688336    -4.821581
H    -6.642724     5.958483    -4.227465
H    -4.310231     9.055666    -3.282264
O    -4.842415     8.257585    -3.172754
H    -4.431084     7.782379    -2.432640
H    -9.730052     5.720820    -4.649191
O    -10.259846     4.914113    -4.483634
H    -11.141704     5.111247    -4.801310
H     2.756021     6.527984     6.124041
O     1.795566     6.620857     6.222311
H     1.455940     5.705638     6.123261
H     4.777390     8.549069     0.059699
O     5.095484     8.554396     0.980374
H     5.506187     7.692256     1.113867
H     4.182043    -7.442683    -4.314330
O     3.427569    -7.730286    -4.859807
H     3.144821    -8.569676    -4.481410
H     0.353836     8.655994     4.213516
O     1.033981     8.013525     3.986638
H     1.263546     7.524206     4.802613
H     5.225444     4.184102    -3.168203
O     6.187043     4.159244    -3.115868
H     6.399274     3.580585    -2.366743
H    -2.554509    -1.550488     7.586990
O    -2.047880    -0.753997     7.803845
H    -2.676081    -0.129755     8.177280
H    -9.055460     7.866353    -4.157541
O    -8.990420     7.278299    -4.911479
H    -8.032631     7.119076    -5.047528
H     3.580072    -8.980508     1.118593
O     2.902931    -8.352230     1.374607
H     3.374672    -7.543376     1.647105
H     3.560991     8.174232     1.806952
O     2.772675     7.608104     1.921569
H     2.326536     7.844222     2.747616
N    -4.780784    -9.034985    -3.427424
H    -5.044509    -8.729118    -4.300382
H    -5.459364    -8.655972    -2.835387
