18
Coordinates from ORCA-job grain_mol_opt.QMRegion
  H   -2.18304404677059     -7.98849153689005      0.46648624142829
  O   -1.78646301920883     -7.53113243016663      1.23856033554503
  H   -2.51473160113894     -7.19039001387527      1.76142719460315
  H   -5.97026086453213     -7.94468303349856     -0.51239875559639
  O   -5.10269209594654     -8.00664691051738     -0.04080158264331
  H   -5.06342283275977     -7.23887780490721      0.55877447659636
  H   -2.95181812708935     -9.62888458706940     -0.72446813119185
  O   -2.71047956421574     -8.76078703662099     -1.09675913439756
  H   -3.57005862354504     -8.29190910351720     -1.02698835443368
  H   -8.17164079003493     -8.32070376723759     -0.87086787382630
  O   -7.44239867118999     -7.98624843411589     -1.40063231096265
  H   -7.68556966203184     -7.03642508280574     -1.55863041059174
  H   -2.26402571098926     -8.73569836309930     -2.86949081695162
  O   -2.05137257846154     -8.39760894447792     -3.75972316379152
  H   -1.37031856529043     -8.95497562433112     -4.16330768161241
  O   -4.06177020865340    -10.55971627840219      0.51375156461541
  H   -4.62079281848633    -11.29572236471209      0.25062939273405
  H   -4.64935177424595     -9.77820514302998      0.50525560131077
