603

H     0.185330     3.034888    -0.670057
O     0.709637     2.364514    -1.160305
H     1.648278     2.497935    -0.889376
H    -0.078506    -1.307856     3.157756
O     0.311955    -0.606385     2.613961
H    -0.166862     0.206131     2.847827
H    -2.410799     2.411126    -0.526162
O    -2.204298     1.939840     0.298798
H    -2.213068     0.992286     0.071971
H    -4.666990     0.535890     2.196719
O    -4.985785    -0.396923     2.205949
H    -4.480147    -0.872865     1.538880
H     0.058257    -0.305926     0.958414
O    -0.143120    -0.068876     0.032662
H     0.196859     0.827559    -0.089785
H    -0.152170    -3.578469     3.782065
O    -0.432451    -2.749661     4.204258
H     0.214449    -2.578749     4.905245
H    -4.904506     2.499215     1.352725
O    -4.251519     2.109865     1.965829
H    -3.413604     2.094874     1.443775
H    -3.256132     3.932548    -2.194599
O    -2.543474     3.303179    -1.968490
H    -2.179193     3.022331    -2.827605
H    -0.125190    -3.802899     0.507184
O     0.213490    -2.985463     0.926133
H    -0.574511    -2.500465     1.238354
H    -2.380791    -1.542862     2.477264
O    -2.192135    -2.007943     1.636023
H    -2.450991    -1.420447     0.906823
H     2.066873    -1.435607    -1.116876
O     2.299656    -1.689166    -0.199772
H     1.511526    -2.118634     0.184036
H    -1.398018     1.822340     1.921545
O    -1.492236     1.423559     2.796898
H    -1.475556     2.134216     3.463118
H     0.204715    -2.698613    -1.565301
O    -0.552824    -2.089224    -1.617819
H    -0.373964    -1.362003    -0.984635
H    -3.439222    -2.928514    -0.383928
O    -2.721653    -3.419530    -0.805252
H    -2.012713    -2.787576    -1.024265
H     2.766969     0.133154     2.938854
O     2.866608    -0.049971     3.900569
H     2.957251     0.842727     4.305660
H    -3.155488     6.204041    -0.271490
O    -3.071799     6.807769    -1.045726
H    -3.010779     7.715123    -0.699418
H     3.893442     0.592679     1.190658
O     2.943632     0.407973     1.308272
H     2.707355    -0.343364     0.727112
H    -5.792399     0.831448    -1.595146
O    -4.882752     1.160151    -1.467532
H    -4.997448     1.983402    -0.949823
H    -1.228927     5.393456     2.219434
O    -1.853629     4.642030     2.120644
H    -1.907956     4.223279     2.984889
H     3.480425     2.771678     0.432814
O     3.231829     2.728917    -0.505941
H     3.565856     1.887640    -0.857928
H     1.490122    -4.689296    -2.249595
O     1.553751    -3.912841    -1.675300
H     2.347015    -3.449508    -2.026720
H    -0.932223    -0.080590    -2.540012
O    -0.297904     0.571566    -2.864115
H    -0.038383     1.155340    -2.127811
H     1.699962    -4.679710    -0.178215
O     1.808404    -5.317292     0.563855
H     1.346458    -6.129024     0.267189
H    -1.230693    -3.261952    -2.875295
O    -1.057213    -3.944877    -3.536562
H    -0.928479    -4.791770    -3.068278
H    -2.792036     3.299388     4.719635
O    -1.811127     3.300480     4.684084
H    -1.515117     2.897329     5.518630
H     0.948886     5.036335     4.086828
O     0.002033     5.264551     4.146906
H    -0.464169     4.457897     4.403143
H    -1.730018    -4.651058    -0.367673
O    -0.963738    -5.190795    -0.083779
H    -1.309604    -5.878900     0.493966
H    -3.936382     5.883424    -2.537434
O    -4.280179     5.038395    -2.873031
H    -4.088647     5.004394    -3.831693
H    -2.430184    -3.693584     1.941497
O    -2.446730    -4.597968     2.316983
H    -1.506321    -4.834611     2.455981
H    -4.700534    -2.983305    -2.890642
O    -3.848400    -3.214331    -3.298205
H    -3.515066    -4.007426    -2.833839
H     0.332723     1.374642     4.624261
O     0.834214     2.137541     4.290201
H     0.886115     2.794351     4.998698
H    -4.655053    -5.174387    -1.565288
O    -5.357083    -4.823104    -0.990378
H    -5.142228    -5.178180    -0.106933
H     2.326656    -6.470479    -4.041418
O     1.989723    -6.143666    -3.187126
H     2.426174    -6.717147    -2.524965
H     0.461095    -3.371438    -4.002621
O     1.263001    -3.003155    -4.425979
H     0.942265    -2.630503    -5.273567
H     1.961953    -1.749799     2.985145
O     2.118263    -2.680421     2.767457
H     1.432514    -2.894478     2.100441
H    -3.023011    -1.808282    -3.202068
O    -2.602406    -0.921427    -3.135344
H    -3.258341    -0.275955    -3.454944
H    -3.236782     4.829820     1.340327
O    -4.021476     5.217798     0.891360
H    -4.362422     5.815345     1.608649
H     0.866767     2.254809     2.599969
O     0.964782     2.250524     1.628764
H     1.693452     1.630088     1.462099
H     0.164276     5.663539    -0.750349
O     0.701471     6.318702    -1.250657
H     0.826830     7.123798    -0.699963
H     0.323670     7.034439     2.607553
O    -0.045271     6.648500     1.795945
H     0.624129     5.987948     1.522414
H    -2.485822     0.209605     3.350623
O    -2.706479    -0.604546     3.855861
H    -1.944692    -0.644127     4.476022
H    -0.897898     0.547543     6.034694
O    -0.623986     0.030188     5.259021
H     0.091495    -0.572236     5.543524
H     0.712354    -4.992332     1.981556
O     0.171089    -5.103940     2.786468
H     0.318035    -6.024545     3.057387
H    -2.111443    -8.090118     0.448705
O    -1.789409    -7.602586     1.234328
H    -2.575934    -7.293143     1.691188
H    -0.370985     6.871416    -2.344680
O    -1.112545     7.294861    -2.844266
H    -1.892822     7.145140    -2.271685
H    -1.135428     4.311286     0.584034
O    -0.756565     4.364133    -0.308960
H    -1.464967     4.140251    -0.945653
H    -4.417954     2.734322     3.522411
O    -4.421013     2.907885     4.486733
H    -4.498903     2.024236     4.896125
H     2.026137    -3.580619     4.245765
O     1.963901    -4.053629     5.098723
H     2.471329    -3.516980     5.729108
H     4.686035    -3.184460     0.838333
O     4.524339    -3.108427    -0.127855
H     3.664602    -2.632340    -0.210065
H    -2.730314    -0.749528    -1.342588
O    -3.058062    -0.481826    -0.467492
H    -3.859392     0.042848    -0.674281
H    -1.627859    -0.755696    -4.623347
O    -1.121689    -0.539586    -5.427567
H    -0.413846     0.059804    -5.143208
H     1.786324    -1.705306    -3.373694
O     1.877640    -0.959772    -2.749028
H     1.099431    -0.383192    -2.879129
H     3.662710    -3.115740     2.550961
O     4.622136    -3.342799     2.476966
H     4.678773    -4.303007     2.602341
H     3.431948    -6.115926     3.120619
O     3.786300    -5.913638     2.220276
H     3.047677    -5.568690     1.678407
H    -3.358634     1.611753    -4.168081
O    -4.202158     1.137945    -3.976709
H    -4.418321     1.284035    -3.020362
H    -5.224554     4.072002     0.184474
O    -5.643415     3.207082     0.032857
H    -6.577886     3.295338    -0.257337
H     6.726253    -1.166116    -1.363793
O     5.954812    -1.018848    -0.810225
H     5.537353    -1.887517    -0.613880
H     4.588522    -3.155801    -2.471188
O     3.719756    -2.985974    -2.885816
H     3.723566    -3.603485    -3.642966
H     4.435680    -2.289072     5.622111
O     4.094335    -2.756139     6.415134
H     4.431278    -3.660336     6.332169
H    -0.772100     6.332304     5.090913
O    -1.373492     6.906909     5.626121
H    -1.382510     7.785045     5.186873
H     4.688642    -0.124592    -1.464004
O     3.919902     0.416576    -1.725009
H     3.228233    -0.184544    -2.055751
H    -0.764755     4.531427    -4.025264
O    -1.550832     5.068516    -4.232935
H    -1.403178     5.937083    -3.810038
H     0.642991     3.210252    -2.648301
O     0.650828     3.586853    -3.556309
H     0.696241     2.824254    -4.142849
H    -5.380985    -5.202862     1.801141
O    -4.683578    -5.795893     1.444657
H    -3.843485    -5.378688     1.714769
H     7.871450    -1.669648    -4.036499
O     7.614106    -1.357944    -3.136183
H     7.125503    -0.514680    -3.291329
H     3.695949    -5.057729    -5.292265
O     4.458410    -4.683730    -4.811630
H     4.844551    -5.394666    -4.266990
H    -3.787842     0.009769     4.945752
O    -4.389152     0.472273     5.579445
H    -5.047365    -0.187891     5.871305
H     3.465672    -5.933251    -0.522297
O     4.337784    -5.684419    -0.840472
H     4.412473    -4.722019    -0.696208
H     4.987790    -0.319986    -4.159120
O     4.454064    -1.032613    -4.548960
H     4.129267    -1.616610    -3.831177
H    -1.187568     1.577704    -3.926796
O    -1.841315     2.195116    -4.311230
H    -1.485438     2.531269    -5.156410
H     4.885040    -6.308712    -2.319517
O     5.217390    -6.632519    -3.185792
H     6.036629    -7.111841    -3.000477
H     8.737531    -5.070960    -2.925665
O     8.047703    -5.490672    -2.366950
H     8.083972    -6.447787    -2.470219
H     2.319147     4.728649     0.460556
O     1.743623     4.706517     1.234610
H     1.386344     3.786252     1.308223
H    -4.415393    -2.644642     4.240523
O    -5.310213    -2.306048     4.040019
H    -5.175199    -1.524777     3.464166
H    -5.848258    -3.205258     1.327126
O    -6.309474    -3.763538     1.995618
H    -6.120486    -3.328824     2.846364
H     1.678391     3.466735     6.872029
O     1.053302     3.981576     6.339952
H     0.270696     4.132013     6.912225
H     4.999253    -2.161519     3.616037
O     5.018878    -1.444051     4.281086
H     4.206056    -0.888941     4.125401
H     2.396277    -5.574725     4.837608
O     2.777752    -6.457630     4.576594
H     2.033700    -7.040350     4.402308
H     2.248927    -4.503225    -6.790207
O     2.081525    -4.992671    -5.974836
H     1.816140    -4.302379    -5.318613
H     6.437509    -4.088911    -0.507330
O     7.191779    -4.491226    -0.045099
H     7.699209    -4.912181    -0.766834
H    -1.737537     4.484762     7.711094
O    -0.839779     4.581962     8.098485
H    -0.658009     5.540873     8.123764
H    -5.140296     5.703885    -5.565708
O    -4.541201     4.936402    -5.585572
H    -3.787252     5.143593    -6.157924
H     3.267640    -2.511290    -8.435855
O     3.182226    -3.045336    -7.635200
H     4.059142    -3.019116    -7.207106
H    -0.692802     8.828212    -2.271147
O    -0.584974     9.655477    -1.744070
H     0.177481     9.486732    -1.167332
H     2.064120    -0.911500     5.215081
O     1.492493    -1.438274     5.802968
H     1.588028    -1.094226     6.700426
H     5.194134    -2.007034    -5.693660
O     5.541257    -2.772255    -6.216701
H     5.269293    -3.563106    -5.699630
H     5.700258    -5.206745     4.682157
O     5.178754    -5.123577     5.509528
H     4.458409    -5.756912     5.424050
H    -3.977962     1.136292     7.019295
O    -3.785872     1.613814     7.862268
H    -4.662554     1.996089     8.124850
H    -1.811988     9.607525    -0.766639
O    -2.637904     9.440542    -0.237229
H    -3.271108     10.084414    -0.566747
H    -5.984644     4.627654    -2.891566
O    -6.882998     4.491414    -3.265759
H    -6.745901     3.762690    -3.913783
H     0.096860    -7.060884    -1.143183
O     0.562650    -7.496692    -0.396359
H    -0.115498    -7.693306     0.253024
H    -7.647633     3.781367    -1.961837
O    -7.917901     3.195598    -1.221968
H    -7.774295     2.285747    -1.560379
H     3.973094    -0.889232     6.988354
O     3.979751     0.074966     6.980717
H     4.790706     0.367039     6.547946
H     2.238346     5.804220    -1.165585
O     3.176132     5.512217    -1.054349
H     3.350671     4.974387    -1.849259
H     6.552637    -5.916265     0.666369
O     6.186024    -6.653747     1.199929
H     5.281172    -6.378544     1.427773
H    -3.881234     4.721981     7.792159
O    -3.318264     4.263893     7.126985
H    -3.503144     3.319109     7.241446
H     5.767525    -7.933140     0.131455
O     5.480170    -8.620465    -0.506079
H     4.650090    -8.296034    -0.899332
H    -0.562444     2.036352     7.702663
O    -1.196877     1.972594     6.968548
H    -2.064338     1.827879     7.366157
H    -6.390776    -0.133206     1.076346
O    -6.713337    -0.213233     0.163973
H    -7.630312    -0.489779     0.182838
H    -5.376127    -3.070779    -0.578154
O    -5.125901    -2.368342     0.048238
H    -5.696499    -1.596243    -0.140028
H     4.298034     5.587619     0.327640
O     4.633331     5.687105     1.232802
H     3.938932     6.196778     1.685953
H    -9.052737    -1.756337    -2.238451
O    -8.505232    -1.554088    -1.452303
H    -8.629733    -2.292232    -0.815779
H    -5.544351     3.477424    -5.503682
O    -6.060742     2.761217    -5.094888
H    -5.392031     2.174359    -4.686928
H     3.166308    -0.875236    -5.652574
O     2.310109    -0.997072    -6.117309
H     2.396867    -1.845301    -6.591748
H     8.100447    -1.327090    -6.032129
O     8.110972    -2.191563    -5.576536
H     7.255146    -2.592782    -5.826436
H     7.601933     1.012536    -6.310489
O     7.414361     0.164124    -6.724176
H     6.433015     0.112437    -6.759548
H    -7.862608    -3.705128     0.941916
O    -8.542044    -3.598602     0.258494
H    -8.443045    -4.357207    -0.344187
H    -2.272897     8.765446     1.354452
O    -2.189004     8.125226     2.082583
H    -1.398728     7.584079     1.882709
H    -4.448776     6.553997     3.629567
O    -4.612021     6.982635     2.765750
H    -3.766202     7.444241     2.587800
H     3.380893     3.458503    -3.571179
O     3.227127     4.427278    -3.476441
H     2.261898     4.491444    -3.582241
H    -6.125912    -1.610851    -3.430261
O    -6.207486    -2.190514    -2.646251
H    -6.991502    -1.885030    -2.136989
H     6.460905     1.059939     4.740796
O     6.066571     1.597200     5.444758
H     6.252212     2.516543     5.154077
H     1.341315     1.732415    -5.815447
O     1.149234     1.134897    -5.061780
H     1.514329     0.273108    -5.333044
H    -2.493832     2.953414     10.496287
O    -2.280372     2.046381     10.222177
H    -2.878071     1.846312     9.489918
H     7.621826    -0.484224     3.081765
O     6.870983     0.089821     3.252452
H     6.180249    -0.512195     3.631771
H    -5.655198    -8.061014    -0.694500
O    -4.919667    -8.129045    -0.048822
H    -4.924142    -7.312076     0.473619
H    -5.191795    -0.121209    -4.702808
O    -5.808654    -0.833843    -4.941319
H    -6.647065    -0.392856    -5.139576
H     1.871470    -0.186095    -7.510333
O     1.668236     0.285387    -8.353927
H     2.245250    -0.118288    -9.007647
H     4.854299    -1.374257    -9.303603
O     3.928316    -1.147346    -9.584595
H     3.907393    -1.263642    -10.533798
H     7.563105    -2.558257     4.196637
O     7.708983    -2.593252     3.236988
H     7.216789    -3.384734     2.964889
H     6.724389    -5.882482     2.679383
O     6.785560    -5.207973     3.381268
H     7.662193    -5.291607     3.797799
H    -1.834132     8.954753     3.504220
O    -1.597517     9.247528     4.408628
H    -2.448993     9.381568     4.858203
H    -7.407871     1.564380    -5.232663
O    -7.980584     0.818305    -4.987953
H    -8.883411     1.214819    -4.912482
H     6.908322    -1.060499    -8.405917
O     6.328013    -1.782899    -8.669536
H     6.101618    -2.233489    -7.837568
H    -1.709040     6.247114    -7.005696
O    -2.101390     5.417898    -6.735881
H    -1.856228     5.289051    -5.770328
H    -0.005704     3.306769     9.033744
O     0.193058     2.387232     9.287647
H    -0.604096     2.121030     9.794815
H     6.748070    -2.762371    -2.707693
O     6.219609    -3.508018    -2.366492
H     6.689226    -4.317663    -2.614620
H    -4.087614    -3.072899    -4.934478
O    -4.243630    -2.960262    -5.898973
H    -4.791479    -2.167556    -5.954142
H     1.975635     2.182383     8.472969
O     2.637922     2.297303     7.781891
H     3.062321     1.428284     7.664815
H    -6.910003    -5.209707    -1.384895
O    -7.825507    -5.480419    -1.629521
H    -7.960595    -5.077657    -2.512193
H    -3.852633     5.261881     5.690973
O    -3.815874     6.029912     5.099344
H    -2.880060     6.318814     5.202388
H    -7.897959     0.078571    -1.949854
O    -7.412255     0.805800    -2.361882
H    -7.638478     0.794497    -3.315811
H     5.827589     0.143333     0.412953
O     5.604746     0.863678     1.034842
H     6.116532     0.669184     1.846860
H    -6.226535     3.296271     7.411655
O    -6.095316     2.779611     8.240386
H    -6.692535     2.015630     8.153611
H     2.281272    -8.065961    -0.844522
O     2.957737    -8.051762    -1.541241
H     2.733402    -8.765603    -2.154816
H    -2.754734    -3.958187    -6.189923
O    -2.000361    -4.523850    -5.959100
H    -1.723078    -4.231905    -5.062368
H    -5.655159     3.747943     5.327189
O    -6.308571     4.145341     5.939884
H    -6.135658     5.087705     5.940704
H    -1.019411    -7.110440    -3.160433
O    -0.547662    -6.440516    -2.631854
H     0.359224    -6.368857    -3.013829
H     4.436384     2.024062     5.132641
O     3.493948     2.261453     5.014612
H     3.111398     2.276004     5.897216
H     4.098338     4.662929     6.307135
O     4.174908     5.394887     5.690672
H     3.608124     5.153094     4.919430
H     2.752813     3.623196     3.929593
O     2.571649     4.562896     3.765503
H     2.452117     4.662473     2.798799
H     9.381799     0.231594    -1.073990
O     8.576437     0.392768    -0.578811
H     8.402296    -0.426996    -0.086683
H    -2.109231     5.312819     10.665023
O    -2.830679     4.683551     10.896137
H    -3.047232     4.858338     11.812231
H     7.968595    -2.992601     0.323724
O     8.388823    -2.145570     0.579080
H     8.323805    -2.141263     1.541431
H     5.358685     3.675331     3.528774
O     6.014021     3.940589     4.196232
H     5.601182     4.658979     4.697076
H    -4.217511     5.012846     9.800541
O    -4.852384     5.161783     9.079541
H    -5.461728     4.411065     9.078718
H    -7.018606    -3.484394    -3.472841
O    -7.638696    -4.097048    -3.920725
H    -7.117633    -4.537633    -4.623953
H     0.018084     6.124713     10.783889
O    -0.847250     6.454568     10.537160
H    -0.732658     6.886268     9.671339
H     2.571342     1.506940    -4.099664
O     3.450127     1.859664    -3.862419
H     3.771346     1.345834    -3.091731
H    -6.973455    -0.232995     7.236208
O    -7.483252     0.544771     7.516665
H    -8.108877     0.725072     6.813957
H    -2.736209    -9.874385    -0.826572
O    -2.674950    -8.932499    -0.985701
H    -3.581213    -8.567837    -0.743896
H    -10.090101     3.065272    -4.876084
O    -10.206112     2.147455    -4.596252
H    -10.421008     2.229440    -3.646345
H    -2.067184    -3.028120     4.622070
O    -2.941533    -3.469385     4.692439
H    -2.935056    -4.086748     3.935691
H    -0.171143    -7.981401     2.487248
O     0.655247    -7.769866     2.934615
H     1.373526    -8.063856     2.346813
H     6.707244    -2.364993     6.390640
O     7.157430    -3.073964     5.926603
H     6.528543    -3.809722     5.888245
H    -5.270796    -2.013651     6.956375
O    -5.948240    -1.515871     6.473678
H    -5.932509    -1.892455     5.564178
H     0.812504     3.043434    -7.104768
O     1.730565     2.713514    -7.162949
H     1.716356     1.966987    -7.789724
H    -3.963804     8.758375     6.689298
O    -3.979877     8.746572     5.732198
H    -4.091974     7.813530     5.477159
H    -2.109021     10.313885    -2.714649
O    -3.018197     10.483011    -3.002948
H    -2.963559     11.113817    -3.720699
H     9.412186    -4.044465     4.038032
O     9.134618    -4.723365     4.660748
H     8.705025    -4.252113     5.385555
H    -0.741240    -5.990603    -5.836462
O    -0.036380    -6.556201    -5.504310
H     0.798040    -6.092942    -5.722676
H     1.803457     8.280891     0.675987
O     1.495830     8.605622    -0.198110
H     2.307113     8.644730    -0.733156
H     3.475191     2.944262    -6.656723
O     4.303843     2.654445    -6.249118
H     4.060162     2.380664    -5.339835
H     3.708708     7.135722    -1.221290
O     3.915163     8.071795    -1.433129
H     4.281377     8.017436    -2.327710
H     4.375250     0.009889    -7.909337
O     4.753763     0.155805    -7.040488
H     4.570359     1.087211    -6.795555
H     6.016156     1.947866    -0.473705
O     6.580591     2.141926    -1.235840
H     7.406136     1.663649    -1.042873
H     6.686792    -8.415354    -1.613067
O     7.321481    -8.203196    -2.350277
H     7.688814    -9.036695    -2.639502
H    -5.307898    -5.789665    -5.397830
O    -5.926851    -5.118589    -5.711097
H    -5.377341    -4.349192    -5.948074
H     0.667246     7.173427     7.612276
O    -0.234242     7.199722     7.972431
H    -0.790705     7.213394     7.156032
H    -8.907546    -2.842671    -4.085789
O    -9.429023    -2.034988    -3.917174
H    -9.144942    -1.369596    -4.547661
H    -2.412112    -5.987016    -2.137536
O    -3.291496    -5.702760    -2.404315
H    -3.478895    -6.076500    -3.290451
H    -2.993263    -5.896914    -5.402358
O    -3.591388    -6.508332    -4.929833
H    -3.107656    -7.327826    -4.764670
H    -1.413230     3.736125    -6.967501
O    -0.872547     2.978488    -6.701193
H    -1.112099     2.195306    -7.251781
H    -0.225417     0.426694    -8.207787
O    -1.122134     0.658704    -7.924076
H    -1.294376     0.136023    -7.124990
H    -10.444345     4.040020    -2.713891
O    -10.510663     3.263673    -2.142399
H    -9.678305     3.236983    -1.638751
H     4.563880     4.091411     1.725596
O     4.359661     3.169875     2.006361
H     5.075089     2.595660     1.720622
H     6.467714     1.416198    -4.218817
O     6.167368     0.790766    -3.524751
H     6.197685     1.286148    -2.680880
H     9.625483    -2.205005    -0.935103
O     9.900666    -1.989598    -1.835084
H     9.099157    -1.651870    -2.277293
H     9.961110    -3.297716    -3.105394
O     9.694574    -3.949792    -3.780517
H     9.298901    -3.442377    -4.499858
H    -7.695793    -8.582919    -1.655801
O    -6.959182    -7.987062    -1.784128
H    -7.338466    -7.074762    -1.773314
H     4.134619     6.096065    -3.813303
O     4.795801     6.797440    -3.729792
H     5.632332     6.343936    -3.593090
H     0.095519    -8.162482    -5.214101
O     0.121180    -9.145503    -5.083007
H     0.271343    -9.508272    -5.956039
H    -2.330785    -8.671821    -2.711839
O    -2.099059    -8.407032    -3.621598
H    -1.451480    -9.023715    -3.981712
H     2.187872    -10.806396    -3.498898
O     2.140022    -9.851979    -3.473431
H     1.353721    -9.581996    -3.998747
H     6.813623     3.349449    -4.572934
O     6.872447     2.671774    -5.274344
H     6.077971     2.803846    -5.813910
H    -3.558678    -3.730034     7.730395
O    -3.675119    -2.942042     7.201080
H    -3.424486    -3.180046     6.282226
H    -0.650644    -3.354300    -6.718690
O    -0.021134    -2.622331    -6.726125
H    -0.503320    -1.847427    -6.383607
H     0.640835     0.460061     8.760546
O     0.648820    -0.253753     8.118961
H    -0.272790    -0.544795     8.032350
H    -5.902613     7.338730    -4.247139
O    -6.390972     6.716558    -4.817149
H    -6.654803     5.970097    -4.230798
H    -4.252944     9.071197    -3.083401
O    -4.889388     8.341236    -3.061787
H    -5.251991     8.334644    -2.160153
H    -9.737739     5.788506    -4.621372
O    -10.270188     4.983675    -4.455211
H    -11.150114     5.180881    -4.778218
H     2.753313     6.520358     6.149710
O     1.793088     6.614939     6.249883
H     1.451678     5.700993     6.145725
H     4.776854     8.560309     0.092190
O     5.096589     8.561066     1.012556
H     5.505104     7.697211     1.141360
H     4.140404    -7.411567    -4.345532
O     3.382268    -7.697573    -4.887119
H     3.103995    -8.539196    -4.511011
H     0.359190     8.663230     4.248542
O     1.034658     8.017053     4.019449
H     1.264185     7.525048     4.833742
H     5.213560     4.207949    -3.153651
O     6.175212     4.178091    -3.102712
H     6.385611     3.597354    -2.354840
H    -2.576068    -1.550449     7.582969
O    -2.067596    -0.755890     7.802721
H    -2.694224    -0.131926     8.179144
H    -9.065208     7.925867    -4.118464
O    -8.992022     7.345528    -4.877705
H    -8.032737     7.190307    -5.003059
H     3.537505    -8.970404     1.086929
O     2.859937    -8.340402     1.337828
H     3.333329    -7.534206     1.617386
H     3.562670     8.180463     1.838147
O     2.775061     7.613561     1.954531
H     2.329381     7.850486     2.780267
N    -5.876035     7.519129    -0.484094
H    -6.046807     7.797178     0.421508
H    -5.057094     7.005454    -0.420923
