603

H     0.179537     3.042948    -0.686396
O     0.705013     2.377133    -1.179918
H     1.643464     2.509064    -0.906360
H    -0.077126    -1.288923     3.150597
O     0.311253    -0.587855     2.604669
H    -0.169874     0.223831     2.837141
H    -2.417339     2.412418    -0.542559
O    -2.203413     1.944394     0.281956
H    -2.216806     0.995950     0.059085
H    -4.672551     0.544429     2.180089
O    -4.985936    -0.390140     2.194899
H    -4.479355    -0.867027     1.529284
H     0.057062    -0.294486     0.949736
O    -0.141413    -0.059815     0.022479
H     0.194104     0.837988    -0.099153
H    -0.146053    -3.558212     3.782116
O    -0.428191    -2.728338     4.200885
H     0.217374    -2.553842     4.902264
H    -4.904631     2.525632     1.324402
O    -4.263221     2.119758     1.939522
H    -3.420530     2.104982     1.426715
H    -3.273940     3.893640    -2.220240
O    -2.532968     3.301086    -1.988771
H    -2.174779     3.011919    -2.848136
H    -0.117726    -3.791892     0.507741
O     0.218956    -2.972036     0.923605
H    -0.570255    -2.488517     1.235250
H    -2.378762    -1.531270     2.470780
O    -2.188422    -1.998029     1.630552
H    -2.449366    -1.413240     0.900114
H     2.069642    -1.424556    -1.122107
O     2.302743    -1.674308    -0.204216
H     1.515666    -2.104842     0.180699
H    -1.406571     1.835350     1.906349
O    -1.495673     1.438384     2.782913
H    -1.484243     2.151597     3.447072
H     0.210152    -2.692810    -1.568104
O    -0.547790    -2.084075    -1.623581
H    -0.371062    -1.356204    -0.990713
H    -3.433646    -2.927702    -0.387210
O    -2.714443    -3.417444    -0.807387
H    -2.006988    -2.784228    -1.026973
H     2.764323     0.158206     2.929072
O     2.864679    -0.022572     3.890853
H     2.952910     0.871113     4.294586
H    -3.564173     6.377146    -0.556342
O    -3.328618     7.039734    -1.257940
H    -3.190715     7.886046    -0.788998
H     3.891594     0.614198     1.179913
O     2.941404     0.430111     1.296068
H     2.706956    -0.324975     0.718965
H    -5.794294     0.828817    -1.606651
O    -4.885191     1.160329    -1.481638
H    -4.999458     1.989137    -0.971422
H    -1.248027     5.406568     2.193247
O    -1.868061     4.654091     2.081929
H    -1.941319     4.239702     2.946851
H     3.473270     2.790960     0.413747
O     3.224788     2.746137    -0.525228
H     3.560629     1.904072    -0.874266
H     1.500715    -4.682518    -2.245841
O     1.562127    -3.903772    -1.674378
H     2.354949    -3.440249    -2.026461
H    -0.931549    -0.081508    -2.550965
O    -0.300803     0.573645    -2.876377
H    -0.042306     1.157688    -2.140225
H     1.709477    -4.666512    -0.174690
O     1.819328    -5.301746     0.569054
H     1.359246    -6.115407     0.274734
H    -1.223536    -3.263632    -2.876425
O    -1.047505    -3.947377    -3.536109
H    -0.917332    -4.792993    -3.065728
H    -2.801518     3.317960     4.697335
O    -1.820307     3.318700     4.662713
H    -1.525273     2.919939     5.499658
H     0.931962     5.055043     4.065032
O    -0.015488     5.283235     4.112750
H    -0.484204     4.479922     4.375831
H    -1.720460    -4.645921    -0.365383
O    -0.952944    -5.183049    -0.079971
H    -1.297281    -5.870174     0.499903
H    -3.952001     5.824268    -2.610015
O    -4.299280     4.988082    -2.938062
H    -4.145148     4.952125    -3.906348
H    -2.423489    -3.683276     1.940863
O    -2.438037    -4.586947     2.318080
H    -1.497223    -4.820852     2.458799
H    -4.693671    -2.991522    -2.894205
O    -3.840611    -3.221539    -3.300637
H    -3.506045    -4.012939    -2.834112
H     0.326976     1.398945     4.609039
O     0.829354     2.160620     4.273360
H     0.876095     2.820999     4.979077
H    -4.643716    -5.179289    -1.562530
O    -5.346743    -4.827660    -0.989129
H    -5.131706    -5.179561    -0.104413
H     2.342022    -6.467220    -4.032120
O     2.003937    -6.138281    -3.179076
H     2.441132    -6.709020    -2.514955
H     0.469641    -3.372006    -4.002780
O     1.270481    -3.002346    -4.427085
H     0.948998    -2.633896    -5.276156
H     1.963823    -1.727128     2.981110
O     2.122578    -2.657707     2.765066
H     1.437182    -2.875236     2.098887
H    -3.018271    -1.814722    -3.208146
O    -2.599831    -0.926273    -3.145184
H    -3.258321    -0.284112    -3.465537
H    -3.220401     4.976400     1.069121
O    -4.002850     5.347565     0.613617
H    -4.420005     5.904351     1.319514
H     0.858738     2.274239     2.583932
O     0.960110     2.269344     1.612614
H     1.688891     1.648003     1.449021
H     0.156280     5.671091    -0.768616
O     0.676220     6.339415    -1.271886
H     0.825604     7.130596    -0.706624
H     0.274796     7.021459     2.576032
O    -0.065426     6.657276     1.741302
H     0.601257     5.986414     1.486088
H    -2.488389     0.223663     3.338791
O    -2.706425    -0.590475     3.845153
H    -1.945408    -0.625555     4.466608
H    -0.902271     0.573648     6.021530
O    -0.626554     0.054060     5.247773
H     0.089614    -0.545985     5.535206
H     0.722285    -4.975348     1.985641
O     0.180712    -5.085655     2.790479
H     0.329508    -6.005087     3.064373
H    -2.094643    -8.083446     0.460513
O    -1.773732    -7.592791     1.244628
H    -2.560955    -7.283992     1.700731
H    -0.417972     6.871735    -2.337115
O    -1.164334     7.289827    -2.837064
H    -1.955090     7.159401    -2.275285
H    -1.140140     4.319241     0.562207
O    -0.767459     4.381670    -0.333983
H    -1.473116     4.134228    -0.965496
H    -4.428307     2.748121     3.501320
O    -4.427136     2.920210     4.465557
H    -4.506475     2.037554     4.876330
H     2.031945    -3.554073     4.246335
O     1.970507    -4.025096     5.100374
H     2.475951    -3.485344     5.729754
H     4.692309    -3.161843     0.838878
O     4.530824    -3.088546    -0.127648
H     3.669994    -2.614915    -0.211268
H    -2.729665    -0.749163    -1.352248
O    -3.057484    -0.478608    -0.478151
H    -3.860536     0.043065    -0.685425
H    -1.625690    -0.763235    -4.632460
O    -1.120148    -0.546258    -5.436997
H    -0.412322     0.053131    -5.152961
H     1.790877    -1.701323    -3.378220
O     1.880332    -0.952724    -2.756815
H     1.100314    -0.379466    -2.888396
H     3.668042    -3.090487     2.550819
O     4.627937    -3.315572     2.477331
H     4.686899    -4.275194     2.606043
H     3.443718    -6.089523     3.129041
O     3.797909    -5.888990     2.228171
H     3.058712    -5.547155     1.685234
H    -3.362058     1.602926    -4.181863
O    -4.205103     1.129432    -3.990159
H    -4.422708     1.275374    -3.033515
H    -5.108762     4.140312     0.058662
O    -5.543553     3.272178    -0.043227
H    -6.474768     3.386799    -0.324201
H     6.728872    -1.143986    -1.366846
O     5.955471    -0.996874    -0.815900
H     5.540919    -1.866263    -0.616520
H     4.595851    -3.142555    -2.470777
O     3.726964    -2.975642    -2.886528
H     3.732493    -3.595911    -3.641445
H     4.438150    -2.253470     5.619954
O     4.097285    -2.719235     6.413867
H     4.436400    -3.622852     6.333719
H    -0.787497     6.356263     5.061114
O    -1.386432     6.930137     5.598499
H    -1.401516     7.807089     5.156507
H     4.688781    -0.106869    -1.472314
O     3.918657     0.431592    -1.735620
H     3.228877    -0.172888    -2.064098
H    -0.772970     4.525871    -4.047672
O    -1.557135     5.066656    -4.256191
H    -1.408383     5.934391    -3.835458
H     0.635305     3.213396    -2.667523
O     0.641005     3.589848    -3.576375
H     0.690542     2.825880    -4.161115
H    -5.371062    -5.199413     1.803409
O    -4.672244    -5.791918     1.448661
H    -3.833188    -5.372276     1.718145
H     7.876242    -1.653990    -4.038794
O     7.617289    -1.340281    -3.139710
H     7.127279    -0.498461    -3.297371
H     3.708709    -5.055207    -5.286460
O     4.469898    -4.677667    -4.806683
H     4.857773    -5.386042    -4.259808
H    -3.791155     0.024256     4.933701
O    -4.393340     0.487176     5.565752
H    -5.050690    -0.172992     5.859364
H     3.478488    -5.917145    -0.513953
O     4.349778    -5.667065    -0.833401
H     4.422578    -4.704226    -0.691307
H     4.990052    -0.311698    -4.166241
O     4.456531    -1.025335    -4.554574
H     4.133805    -1.609117    -3.835540
H    -1.191306     1.572306    -3.942041
O    -1.843903     2.190539    -4.328069
H    -1.488583     2.520943    -5.175828
H     4.899209    -6.294622    -2.310173
O     5.232648    -6.619953    -3.175453
H     6.052786    -7.097124    -2.988444
H     8.749144    -5.050238    -2.918025
O     8.059674    -5.469803    -2.358710
H     8.098352    -6.427156    -2.458895
H     2.307269     4.736392     0.437247
O     1.727989     4.722970     1.207898
H     1.376241     3.800680     1.292985
H    -4.411981    -2.631994     4.235682
O    -5.307487    -2.296534     4.033182
H    -5.174178    -1.515844     3.456252
H    -5.842226    -3.204129     1.323644
O    -6.302450    -3.761757     1.993233
H    -6.115107    -3.324103     2.842916
H     1.666949     3.500461     6.851603
O     1.041182     4.012012     6.317116
H     0.258230     4.163474     6.889313
H     5.002308    -2.130261     3.613469
O     5.020132    -1.410794     4.276335
H     4.206079    -0.858104     4.119192
H     2.406366    -5.545758     4.843888
O     2.789719    -6.428580     4.585227
H     2.046915    -7.013434     4.412811
H     2.260880    -4.507541    -6.786865
O     2.094057    -4.995027    -5.970226
H     1.827301    -4.303688    -5.315843
H     6.446069    -4.066239    -0.503555
O     7.201008    -4.465607    -0.039920
H     7.709737    -4.887479    -0.760204
H    -1.748131     4.510252     7.690460
O    -0.849320     4.612465     8.074774
H    -0.672011     5.572424     8.097501
H    -5.155278     5.675221    -5.607000
O    -4.544127     4.914535    -5.625841
H    -3.788656     5.130698    -6.193480
H     3.276050    -2.518132    -8.437859
O     3.190807    -3.049258    -7.635269
H     4.067691    -3.020911    -7.207110
H    -0.687051     8.826412    -2.271497
O    -0.558590     9.648909    -1.745076
H     0.205700     9.468246    -1.173718
H     2.063602    -0.882168     5.208910
O     1.492916    -1.409129     5.797354
H     1.586113    -1.062074     6.693978
H     5.199887    -2.002143    -5.696228
O     5.548505    -2.768042    -6.217138
H     5.278620    -3.558080    -5.697656
H     5.709437    -5.170972     4.688524
O     5.187367    -5.086598     5.515391
H     4.468539    -5.721861     5.431627
H    -3.984533     1.155930     7.004240
O    -3.793785     1.634239     7.846927
H    -4.671248     2.016792     8.107647
H    -1.894784     9.619594    -0.756889
O    -2.759232     9.490398    -0.291194
H    -3.369900     10.116665    -0.683367
H    -5.979458     4.672684    -2.946797
O    -6.887714     4.549839    -3.290666
H    -6.794958     3.846127    -3.966104
H     0.112019    -7.053878    -1.133238
O     0.578591    -7.486496    -0.385118
H    -0.099259    -7.682866     0.264665
H    -7.664383     3.769550    -1.979254
O    -7.922567     3.183074    -1.237758
H    -7.776213     2.274226    -1.575557
H     3.971941    -0.850818     6.982168
O     3.976043     0.113319     6.970569
H     4.787195     0.405980     6.538564
H     2.217936     5.815245    -1.197127
O     3.155283     5.526786    -1.083704
H     3.336182     4.984008    -1.874772
H     6.564748    -5.890010     0.675376
O     6.199400    -6.626924     1.210564
H     5.294045    -6.352876     1.437775
H    -3.892701     4.741352     7.771059
O    -3.324864     4.279528     7.112411
H    -3.514229     3.335558     7.225174
H     5.784309    -7.910160     0.145852
O     5.498696    -8.599852    -0.489944
H     4.668022    -8.278367    -0.884304
H    -0.570957     2.067100     7.686538
O    -1.204529     1.998241     6.952083
H    -2.072077     1.853862     7.349666
H    -6.391900    -0.132252     1.063640
O    -6.712474    -0.218551     0.151109
H    -7.630014    -0.493297     0.170309
H    -5.370305    -3.073941    -0.581868
O    -5.120486    -2.369270     0.042117
H    -5.693943    -1.599240    -0.146612
H     4.169328     5.573495     0.298017
O     4.598828     5.719059     1.161062
H     3.939450     6.254860     1.648406
H    -9.048903    -1.772554    -2.246887
O    -8.501222    -1.567323    -1.461699
H    -8.625021    -2.303277    -0.822494
H    -5.552696     3.450936    -5.533869
O    -6.066911     2.739267    -5.117086
H    -5.397754     2.157099    -4.702767
H     3.169503    -0.874407    -5.658964
O     2.313698    -0.998554    -6.124021
H     2.402356    -1.848217    -6.595746
H     8.105292    -1.316975    -6.035574
O     8.117205    -2.180049    -5.577467
H     7.262501    -2.583949    -5.826558
H     7.602073     1.020695    -6.320605
O     7.415978     0.170949    -6.732243
H     6.434884     0.117050    -6.767336
H    -7.855670    -3.709337     0.939439
O    -8.534854    -3.606443     0.255205
H    -8.434094    -4.366795    -0.344896
H    -2.455542     8.742998     1.274590
O    -2.299445     8.156361     2.027866
H    -1.529773     7.604557     1.801568
H    -4.478662     6.437081     3.484385
O    -4.650955     6.860427     2.626912
H    -3.890460     7.449837     2.486358
H     3.374654     3.466146    -3.588797
O     3.215261     4.434830    -3.495825
H     2.250150     4.493090    -3.606129
H    -6.122377    -1.623857    -3.437874
O    -6.202205    -2.201769    -2.652619
H    -6.987175    -1.896904    -2.144073
H     6.456732     1.097792     4.729607
O     6.059688     1.635111     5.431896
H     6.244243     2.554535     5.140568
H     1.340030     1.728544    -5.830398
O     1.148593     1.133882    -5.074416
H     1.515192     0.271561    -5.342596
H    -2.504397     2.987182     10.476793
O    -2.288922     2.079838     10.205166
H    -2.886304     1.876420     9.473582
H     7.621323    -0.447648     3.075205
O     6.868325     0.124434     3.242894
H     6.179551    -0.478184     3.624818
H    -5.637962    -8.065350    -0.684106
O    -4.902317    -8.129782    -0.038163
H    -4.909016    -7.311505     0.482228
H    -5.191140    -0.135677    -4.714558
O    -5.805427    -0.850452    -4.952479
H    -6.645602    -0.412711    -5.150703
H     1.874599    -0.193301    -7.519257
O     1.670268     0.276133    -8.363907
H     2.248013    -0.128113    -9.016698
H     4.860174    -1.379969    -9.308090
O     3.933863    -1.155380    -9.590153
H     3.913469    -1.275690    -10.538877
H     7.566783    -2.519362     4.196140
O     7.712614    -2.556815     3.236570
H     7.222602    -3.350465     2.966917
H     6.736001    -5.850153     2.688295
O     6.795203    -5.173265     3.387976
H     7.671822    -5.253535     3.805336
H    -1.864689     8.960106     3.479121
O    -1.618203     9.267920     4.376294
H    -2.467466     9.397698     4.831535
H    -7.411055     1.540865    -5.251595
O    -7.982526     0.794848    -5.004515
H    -8.885875     1.190812    -4.928720
H     6.913582    -1.060000    -8.410567
O     6.334067    -1.783738    -8.672274
H     6.108900    -2.232940    -7.839224
H    -1.717505     6.233500    -7.037322
O    -2.112146     5.407482    -6.761364
H    -1.862301     5.279536    -5.797923
H    -0.016648     3.342109     9.013744
O     0.183920     2.423505     9.270236
H    -0.612834     2.157327     9.778060
H     6.754738    -2.745386    -2.707133
O     6.227304    -3.491201    -2.364689
H     6.699180    -4.300528    -2.609671
H    -4.079651    -3.086068    -4.937414
O    -4.234888    -2.975909    -5.902345
H    -4.785762    -2.185457    -5.959682
H     1.967007     2.221829     8.456615
O     2.629040     2.335392     7.765030
H     3.055417     1.466936     7.651527
H    -6.898764    -5.218730    -1.382948
O    -7.813437    -5.492443    -1.627258
H    -7.949351    -5.092299    -2.510940
H    -3.855135     5.265834     5.686431
O    -3.826082     6.032745     5.093460
H    -2.893361     6.331743     5.186803
H    -7.897515     0.065869    -1.963547
O    -7.411086     0.790662    -2.378979
H    -7.640025     0.776599    -3.332019
H     5.826136     0.168892     0.404883
O     5.601058     0.890483     1.024658
H     6.113524     0.698916     1.837201
H    -6.234094     3.314904     7.391251
O    -6.103500     2.798858     8.220832
H    -6.700766     2.034956     8.134598
H     2.299069    -8.053425    -0.830772
O     2.975294    -8.039422    -1.527726
H     2.752895    -8.755779    -2.139076
H    -2.744284    -3.971963    -6.189915
O    -1.988095    -4.534579    -5.957656
H    -1.712365    -4.240260    -5.061208
H    -5.665911     3.763300     5.303098
O    -6.316296     4.158523     5.919791
H    -6.156083     5.103121     5.904874
H    -1.003189    -7.111767    -3.150729
O    -0.533147    -6.438904    -2.624324
H     0.373888    -6.366815    -3.005868
H     4.429748     2.058079     5.118762
O     3.486838     2.292851     4.998186
H     3.103295     2.310243     5.880398
H     4.084384     4.696480     6.287679
O     4.160745     5.426899     5.669547
H     3.596314     5.184527     4.897576
H     2.741451     3.649462     3.912471
O     2.557738     4.587894     3.744171
H     2.447348     4.685822     2.777213
H     9.381587     0.260850    -1.080430
O     8.573390     0.419205    -0.589083
H     8.402978    -0.398721    -0.092710
H    -2.125152     5.347992     10.638905
O    -2.844626     4.717157     10.872083
H    -3.062960     4.895547     11.787041
H     7.974476    -2.964173     0.325139
O     8.392210    -2.115202     0.577993
H     8.327391    -2.108332     1.540362
H     5.345791     3.708507     3.513226
O     6.001663     3.974026     4.178696
H     5.591994     4.697453     4.675100
H    -4.232682     5.040132     9.775221
O    -4.867046     5.186710     9.053389
H    -5.475783     4.435553     9.053279
H    -7.010387    -3.499721    -3.475703
O    -7.628853    -4.114840    -3.922416
H    -7.106574    -4.556406    -4.624027
H     0.000183     6.165857     10.755746
O    -0.866213     6.492411     10.508358
H    -0.752948     6.921924     9.641201
H     2.569636     1.511190    -4.113013
O     3.446068     1.869242    -3.874969
H     3.769965     1.355898    -3.104665
H    -6.977495    -0.217320     7.222772
O    -7.489000     0.559746     7.501782
H    -8.113431     0.739116     6.797751
H    -2.714892    -9.872642    -0.809893
O    -2.655715    -8.931109    -0.971903
H    -3.562862    -8.567753    -0.731246
H    -10.095417     3.039769    -4.899534
O    -10.208545     2.122431    -4.616827
H    -10.423948     2.207507    -3.667107
H    -2.063045    -3.009346     4.619306
O    -2.936195    -3.452716     4.690575
H    -2.928200    -4.072219     3.935704
H    -0.155192    -7.964799     2.499616
O     0.670652    -7.749967     2.946399
H     1.389735    -8.044224     2.359724
H     6.709918    -2.321970     6.389412
O     7.161369    -3.031258     5.927091
H     6.534141    -3.768530     5.891155
H    -5.270063    -1.995701     6.949448
O    -5.948769    -1.501423     6.464965
H    -5.931778    -1.880387     5.556626
H     0.807300     3.034017    -7.124732
O     1.726283     2.707098    -7.180627
H     1.715386     1.957960    -7.804648
H    -3.995325     8.769326     6.654626
O    -3.996632     8.764578     5.697259
H    -4.116949     7.835504     5.432521
H    -2.103841     10.314538    -2.762047
O    -3.007738     10.492212    -3.057162
H    -2.945312     11.125147    -3.772012
H     9.419214    -4.002207     4.042784
O     9.142293    -4.680096     4.666886
H     8.711861    -4.207763     5.390499
H    -0.726432    -5.998879    -5.830128
O    -0.020595    -6.561987    -5.495881
H     0.813008    -6.097795    -5.715177
H     1.861658     8.342875     0.643245
O     1.515656     8.602400    -0.237743
H     2.292522     8.597466    -0.821219
H     3.470107     2.942386    -6.674265
O     4.299290     2.657036    -6.264875
H     4.056406     2.384098    -5.355164
H     3.718434     7.100707    -1.323007
O     3.953989     8.017362    -1.585558
H     4.265202     7.870826    -2.501276
H     4.377934     0.006414    -7.918141
O     4.754815     0.156136    -7.049238
H     4.570172     1.088008    -6.807850
H     6.012251     1.968834    -0.486502
O     6.574473     2.162645    -1.250289
H     7.402448     1.689012    -1.056385
H     6.705241    -8.395271    -1.597010
O     7.339534    -8.183770    -2.334757
H     7.709368    -9.017181    -2.621031
H    -5.293677    -5.806903    -5.393656
O    -5.913742    -5.137967    -5.709282
H    -5.365768    -4.368199    -5.948295
H     0.649074     7.206870     7.583447
O    -0.252573     7.230507     7.942918
H    -0.808626     7.241649     7.125809
H    -8.900505    -2.863470    -4.091616
O    -9.423870    -2.056540    -3.925506
H    -9.141040    -1.392100    -4.557548
H    -2.398977    -5.988563    -2.131478
O    -3.278379    -5.706093    -2.400088
H    -3.464878    -6.083588    -3.284785
H    -2.978422    -5.909405    -5.397215
O    -3.575570    -6.520403    -4.923119
H    -3.090350    -7.338451    -4.755026
H    -1.422485     3.719710    -6.992730
O    -0.878784     2.967126    -6.720124
H    -1.112483     2.179487    -7.268038
H    -0.223403     0.412975    -8.219396
O    -1.119948     0.645728    -7.935438
H    -1.292613     0.122719    -7.136561
H    -10.452021     4.020533    -2.736904
O    -10.515924     3.242765    -2.167153
H    -9.686096     3.220635    -1.658844
H     4.553771     4.124876     1.707391
O     4.348097     3.203969     1.977970
H     5.068147     2.630192     1.701954
H     6.466090     1.428215    -4.230233
O     6.165193     0.804519    -3.534843
H     6.195958     1.301881    -2.692014
H     9.630242    -2.176589    -0.935070
O     9.904946    -1.964228    -1.835911
H     9.103235    -1.628212    -2.278891
H     9.968989    -3.275158    -3.102114
O     9.703981    -3.929628    -3.775582
H     9.307844    -3.424943    -4.496552
H    -7.676780    -8.594551    -1.644276
O    -6.941502    -7.997457    -1.774542
H    -7.322850    -7.085971    -1.766264
H     4.123989     6.089327    -3.852955
O     4.778393     6.798536    -3.783628
H     5.617888     6.358775    -3.620144
H     0.114808    -8.167394    -5.200935
O     0.142544    -9.149908    -5.067012
H     0.293873    -9.514954    -5.938894
H    -2.311557    -8.674629    -2.698239
O    -2.079706    -8.411769    -3.608571
H    -1.430960    -9.028401    -3.966666
H     2.212635    -10.801537    -3.477238
O     2.162684    -9.847143    -3.454927
H     1.375773    -9.580618    -3.981040
H     6.809005     3.361241    -4.590022
O     6.868127     2.681274    -5.289194
H     6.074073     2.811111    -5.829657
H    -3.554206    -3.706123     7.729309
O    -3.672337    -2.920043     7.197541
H    -3.420681    -3.160022     6.279581
H    -0.641016    -3.365286    -6.719358
O    -0.013880    -2.631199    -6.729110
H    -0.498494    -1.857027    -6.388688
H     0.636219     0.496313     8.748333
O     0.645788    -0.220062     8.109549
H    -0.275429    -0.512569     8.023416
H    -5.878258     7.350264    -4.264685
O    -6.378812     6.728313    -4.824168
H    -6.662550     5.997286    -4.231368
H    -4.328230     9.094111    -3.281158
O    -4.860385     8.296189    -3.172876
H    -4.449811     7.819583    -2.433193
H    -9.749464     5.763492    -4.652898
O    -10.279311     4.957013    -4.487094
H    -11.161082     5.153517    -4.805413
H     2.738586     6.555484     6.120861
O     1.777617     6.643965     6.221537
H     1.440834     5.727307     6.124435
H     5.441952     8.153770    -0.439648
O     6.065563     8.061472     0.307188
H     5.826776     7.184062     0.657609
H     4.157824    -7.404936    -4.333044
O     3.400379    -7.693874    -4.874085
H     3.123902    -8.535192    -4.495951
H     0.354372     8.654538     4.198325
O     0.986124     7.965355     3.970926
H     1.240317     7.508667     4.799720
H     5.204248     4.217352    -3.172919
O     6.165688     4.192676    -3.122929
H     6.380284     3.617093    -2.372242
H    -2.576623    -1.524600     7.576152
O    -2.069254    -0.728805     7.793725
H    -2.697008    -0.104323     8.167592
H    -9.073901     7.907232    -4.158113
O    -9.008891     7.321428    -4.913793
H    -8.051335     7.160815    -5.049436
H     3.556250    -8.949637     1.103850
O     2.877168    -8.320083     1.351757
H     3.348718    -7.512274     1.629795
H     3.490401     8.454625     2.196764
O     2.809641     7.754296     2.056424
H     2.214640     7.809188     2.829051
N     4.806158     9.584528     2.149989
H     4.535230     10.381855     1.685686
H     5.371395     9.093147     1.495794
