603

H     0.234478     3.044947    -0.678289
O     0.755570     2.376032    -1.172458
H     1.694157     2.498603    -0.895187
H    -0.069440    -1.294728     3.147913
O     0.326618    -0.595725     2.604852
H    -0.148357     0.219484     2.837767
H    -2.368312     2.435765    -0.541618
O    -2.159571     1.963524     0.281831
H    -2.181829     1.015822     0.056463
H    -4.646133     0.580376     2.170403
O    -4.966904    -0.351738     2.182864
H    -4.463528    -0.831219     1.516712
H     0.079195    -0.296182     0.949867
O    -0.114205    -0.057702     0.022501
H     0.228179     0.837932    -0.095507
H    -0.159253    -3.565041     3.773878
O    -0.435148    -2.733702     4.193875
H     0.209959    -2.566578     4.897440
H    -4.859054     2.566082     1.318824
O    -4.222774     2.152649     1.934559
H    -3.379085     2.131930     1.423846
H    -3.208239     3.927669    -2.217543
O    -2.471646     3.329193    -1.985746
H    -2.115153     3.037113    -2.844674
H    -0.124446    -3.791070     0.499085
O     0.218286    -2.975101     0.917686
H    -0.567589    -2.485557     1.228495
H    -2.371114    -1.515824     2.461807
O    -2.182136    -1.982109     1.620988
H    -2.436786    -1.393602     0.891303
H     2.086921    -1.438644    -1.119751
O     2.315818    -1.692851    -0.202036
H     1.524020    -2.117307     0.180063
H    -1.369130     1.843581     1.907779
O    -1.463050     1.445689     2.783442
H    -1.447439     2.157593     3.448920
H     0.218027    -2.689822    -1.573301
O    -0.534341    -2.074310    -1.629439
H    -0.353159    -1.349592    -0.994267
H    -3.430617    -2.896736    -0.402097
O    -2.714223    -3.391416    -0.821382
H    -2.001185    -2.763502    -1.037915
H     2.784833     0.128072     2.937220
O     2.881478    -0.055635     3.898864
H     2.975630     0.836449     4.304587
H    -3.508264     6.390124    -0.512623
O    -3.315179     7.048537    -1.235635
H    -3.120477     7.908456    -0.793239
H     3.920156     0.578550     1.191972
O     2.968349     0.401926     1.305367
H     2.728844    -0.349523     0.725611
H    -5.755619     0.883172    -1.618512
O    -4.844051     1.206680    -1.490025
H    -4.953070     2.035469    -0.978286
H    -1.174763     5.416083     2.208771
O    -1.800019     4.670001     2.088834
H    -1.883665     4.251954     2.951112
H     3.523067     2.759954     0.431684
O     3.277327     2.720564    -0.508349
H     3.605862     1.876291    -0.858921
H     1.493186    -4.688870    -2.252792
O     1.559950    -3.912104    -1.679235
H     2.357404    -3.454429    -2.028332
H    -0.898945    -0.066195    -2.553104
O    -0.261807     0.584471    -2.875173
H    -0.000268     1.164210    -2.136745
H     1.696851    -4.679761    -0.180996
O     1.799671    -5.317753     0.561369
H     1.333187    -6.126687     0.264025
H    -1.217273    -3.245247    -2.886788
O    -1.044782    -3.928856    -3.547544
H    -0.923475    -4.776690    -3.078810
H    -2.757221     3.332630     4.697883
O    -1.775819     3.325693     4.666053
H    -1.486871     2.921962     5.502702
H     0.993857     5.041359     4.078576
O     0.048853     5.278403     4.127138
H    -0.427967     4.477824     4.384470
H    -1.731974    -4.629308    -0.380046
O    -0.969795    -5.173693    -0.093981
H    -1.321593    -5.859298     0.483218
H    -3.873035     5.864233    -2.603881
O    -4.220517     5.029374    -2.935493
H    -4.071059     4.996749    -3.904463
H    -2.432726    -3.666102     1.926726
O    -2.455856    -4.570495     2.301787
H    -1.517480    -4.812815     2.444264
H    -4.684580    -2.943522    -2.912505
O    -3.832304    -3.179857    -3.317077
H    -3.506032    -3.975324    -2.851645
H     0.353987     1.386340     4.613626
O     0.864228     2.144390     4.281504
H     0.913774     2.802750     4.988901
H    -4.656560    -5.135252    -1.585625
O    -5.357911    -4.779042    -1.013054
H    -5.148132    -5.134851    -0.128655
H     2.323854    -6.476194    -4.041551
O     1.986720    -6.146364    -3.188481
H     2.417134    -6.722660    -2.524743
H     0.478040    -3.365211    -4.009039
O     1.283032    -3.001229    -4.430491
H     0.966640    -2.628144    -5.279471
H     1.967936    -1.750287     2.982525
O     2.119654    -2.681617     2.764656
H     1.434051    -2.891832     2.096290
H    -2.998355    -1.780217    -3.219329
O    -2.572197    -0.895650    -3.153351
H    -3.224532    -0.246948    -3.473413
H    -3.151807     5.003765     1.072716
O    -3.927379     5.384038     0.614039
H    -4.344757     5.941072     1.319570
H     0.898274     2.261904     2.591534
O     1.002263     2.258220     1.620540
H     1.726209     1.631077     1.457840
H     0.246848     5.664572    -0.731526
O     0.745225     6.342049    -1.251020
H     0.931357     7.102660    -0.654534
H     0.384106     7.047578     2.591806
O     0.025897     6.670788     1.771141
H     0.685375     5.993902     1.515136
H    -2.467989     0.238042     3.333776
O    -2.693972    -0.575506     3.837566
H    -1.934967    -0.618447     4.460910
H    -0.885792     0.568134     6.021311
O    -0.612273     0.048142     5.247015
H     0.097583    -0.559018     5.534916
H     0.701648    -4.985342     1.976106
O     0.157429    -5.092881     2.779504
H     0.297454    -6.014284     3.051394
H    -2.137567    -8.065695     0.436549
O    -1.814398    -7.579637     1.222609
H    -2.600122    -7.265252     1.677498
H    -0.366842     6.952733    -2.304606
O    -1.125005     7.373907    -2.788485
H    -1.887961     7.173131    -2.187373
H    -1.073257     4.331804     0.568980
O    -0.699969     4.393651    -0.327211
H    -1.407838     4.149827    -0.957788
H    -4.386320     2.778947     3.497349
O    -4.385142     2.948516     4.462045
H    -4.473808     2.065695     4.870442
H     2.017364    -3.580831     4.243555
O     1.949919    -4.053446     5.096260
H     2.457905    -3.519391     5.728383
H     4.689686    -3.203214     0.843657
O     4.531562    -3.125897    -0.123134
H     3.674808    -2.645012    -0.207808
H    -2.705579    -0.721635    -1.360078
O    -3.033082    -0.450153    -0.486175
H    -3.831272     0.078805    -0.694181
H    -1.593529    -0.737202    -4.637653
O    -1.083997    -0.522228    -5.440281
H    -0.371853     0.070251    -5.152728
H     1.811524    -1.707298    -3.377203
O     1.906036    -0.960874    -2.753874
H     1.131119    -0.380798    -2.885739
H     3.661754    -3.127104     2.553184
O     4.619899    -3.360309     2.481596
H     4.670054    -4.320775     2.608010
H     3.410460    -6.125555     3.123626
O     3.768771    -5.925664     2.224218
H     3.033809    -5.576503     1.680157
H    -3.310448     1.643221    -4.184908
O    -4.156851     1.175024    -3.996441
H    -4.376910     1.321152    -3.040215
H    -5.045994     4.185484     0.054899
O    -5.487436     3.320827    -0.048090
H    -6.417216     3.443786    -0.331130
H     6.748932    -1.198693    -1.352988
O     5.975830    -1.045610    -0.803306
H     5.552843    -1.911664    -0.606599
H     4.601852    -3.174920    -2.466386
O     3.735637    -2.999257    -2.884023
H     3.737549    -3.617864    -3.640344
H     4.431103    -2.304374     5.626435
O     4.084633    -2.768835     6.418633
H     4.415689    -3.675307     6.337026
H    -0.717897     6.352894     5.073728
O    -1.312516     6.931417     5.611012
H    -1.323546     7.807997     5.168360
H     4.717966    -0.143061    -1.460315
O     3.953583     0.403067    -1.724408
H     3.259071    -0.194457    -2.055836
H    -0.595396     4.550680    -4.060630
O    -1.376408     5.090007    -4.298954
H    -1.265726     5.928957    -3.814564
H     0.695937     3.215715    -2.656746
O     0.706385     3.595748    -3.564332
H     0.749996     2.833359    -4.151701
H    -5.392534    -5.157115     1.778444
O    -4.697861    -5.754809     1.424160
H    -3.856026    -5.342776     1.696618
H     7.898681    -1.710759    -4.022856
O     7.640590    -1.396779    -3.123512
H     7.157807    -0.550767    -3.280419
H     3.705619    -5.072611    -5.289017
O     4.468902    -4.702919    -4.806375
H     4.849149    -5.416062    -4.260361
H    -3.776373     0.045983     4.924903
O    -4.375921     0.512495     5.556734
H    -5.039737    -0.142632     5.847064
H     3.455861    -5.944625    -0.518985
O     4.330148    -5.701295    -0.835511
H     4.410705    -4.739460    -0.691076
H     5.024213    -0.343269    -4.153845
O     4.485943    -1.051470    -4.545317
H     4.156189    -1.634246    -3.828584
H    -1.140987     1.594203    -3.940471
O    -1.785789     2.221082    -4.325894
H    -1.425693     2.548228    -5.172919
H     4.877835    -6.329933    -2.312637
O     5.210946    -6.655643    -3.177885
H     6.026185    -7.140770    -2.989888
H     8.739744    -5.117349    -2.908106
O     8.045395    -5.532173    -2.351413
H     8.075952    -6.489603    -2.453867
H     2.376124     4.720047     0.455206
O     1.794917     4.706981     1.224781
H     1.433356     3.788164     1.303686
H    -4.417945    -2.603326     4.219220
O    -5.310001    -2.259712     4.015335
H    -5.168573    -1.478842     3.440556
H    -5.845388    -3.156791     1.302402
O    -6.311754    -3.712190     1.969601
H    -6.123189    -3.277867     2.820715
H     1.705695     3.470919     6.864840
O     1.086354     3.989794     6.330024
H     0.302885     4.146080     6.900254
H     5.001251    -2.181221     3.621760
O     5.023768    -1.463294     4.286201
H     4.214694    -0.903382     4.128426
H     2.373375    -5.577212     4.837180
O     2.749994    -6.462557     4.577331
H     2.002712    -7.040677     4.401527
H     2.266251    -4.509120    -6.791621
O     2.093594    -4.997086    -5.976493
H     1.830798    -4.305151    -5.321143
H     6.439068    -4.119479    -0.496695
O     7.189723    -4.526013    -0.032347
H     7.696323    -4.950820    -0.752413
H    -1.702564     4.507143     7.697598
O    -0.803717     4.601400     8.084224
H    -0.619181     5.559835     8.109727
H    -5.065717     5.732645    -5.601177
O    -4.457676     4.968108    -5.622746
H    -3.702116     5.180455    -6.191314
H     3.302499    -2.524252    -8.435173
O     3.210759    -3.056460    -7.634016
H     4.086813    -3.036906    -7.203783
H    -0.417463     8.968092    -1.981283
O    -0.241947     9.797360    -1.498326
H     0.494948     9.550169    -0.905413
H     2.069335    -0.911508     5.212690
O     1.493066    -1.435202     5.798589
H     1.586511    -1.090760     6.696194
H     5.223790    -2.031729    -5.687446
O     5.567570    -2.799212    -6.209190
H     5.289253    -3.588258    -5.692583
H     5.679769    -5.230488     4.690922
O     5.156509    -5.143426     5.516730
H     4.432391    -5.772247     5.429796
H    -3.965233     1.174430     6.997590
O    -3.772396     1.649004     7.841920
H    -4.647245     2.038609     8.101315
H    -1.733981     9.702028    -0.652526
O    -2.644510     9.507280    -0.324150
H    -3.223501     10.111064    -0.815433
H    -5.911327     4.731812    -2.949852
O    -6.817655     4.606638    -3.297473
H    -6.724782     3.904140    -3.973448
H     0.081728    -7.051076    -1.149408
O     0.542742    -7.489373    -0.401120
H    -0.138447    -7.681621     0.246418
H    -7.600965     3.839745    -1.985543
O    -7.865389     3.252449    -1.246500
H    -7.725913     2.344018    -1.587506
H     3.972579    -0.901298     6.991178
O     3.985655     0.062817     6.982259
H     4.800298     0.348982     6.552623
H     2.295375     5.802619    -1.184638
O     3.226878     5.506356    -1.062914
H     3.408813     4.963302    -1.853568
H     6.539215    -5.947006     0.678075
O     6.166257    -6.681889     1.210700
H     5.262656    -6.400687     1.436227
H    -3.844745     4.757075     7.773094
O    -3.278622     4.291810     7.115335
H    -3.477072     3.349324     7.224743
H     5.742759    -7.959079     0.141674
O     5.452969    -8.644645    -0.496635
H     4.625938    -8.315248    -0.892165
H    -0.546241     2.054415     7.690751
O    -1.178219     1.993133     6.954316
H    -2.048167     1.855398     7.349103
H    -6.368874    -0.079170     1.048605
O    -6.686875    -0.162139     0.134930
H    -7.607201    -0.427664     0.150597
H    -5.367831    -3.025909    -0.601698
O    -5.113159    -2.325151     0.024694
H    -5.679820    -1.549736    -0.163024
H     4.358694     5.570631     0.327506
O     4.697102     5.666524     1.230913
H     4.006897     6.176215     1.690856
H    -9.030941    -1.690205    -2.272370
O    -8.483251    -1.491745    -1.485447
H    -8.615216    -2.227893    -0.848179
H    -5.480743     3.512458    -5.539569
O    -6.001324     2.801735    -5.129056
H    -5.338677     2.214179    -4.712346
H     3.202970    -0.886611    -5.652420
O     2.347352    -1.002062    -6.119966
H     2.429744    -1.851348    -6.593533
H     8.135669    -1.370562    -6.018088
O     8.139088    -2.234647    -5.561801
H     7.281619    -2.630767    -5.814122
H     7.652869     0.972486    -6.298800
O     7.460767     0.125136    -6.712483
H     6.479302     0.079585    -6.750581
H    -7.861964    -3.644470     0.912330
O    -8.538692    -3.534408     0.226804
H    -8.442804    -4.294028    -0.374977
H    -2.365636     8.765389     1.263728
O    -2.211052     8.182080     2.020025
H    -1.442666     7.625284     1.801571
H    -4.400825     6.470518     3.489011
O    -4.569695     6.894220     2.631286
H    -3.808061     7.481647     2.489824
H     3.439832     3.446448    -3.571716
O     3.289025     4.416353    -3.477401
H     2.324676     4.483144    -3.588895
H    -6.100340    -1.562893    -3.455996
O    -6.186864    -2.142275    -2.672553
H    -6.970433    -1.832004    -2.164993
H     6.480335     1.030960     4.749444
O     6.087398     1.571294     5.451789
H     6.280339     2.489203     5.161731
H     1.396470     1.732663    -5.821930
O     1.198217     1.137971    -5.067706
H     1.557646     0.273050    -5.337253
H    -2.478741     2.984318     10.478241
O    -2.270003     2.075932     10.204845
H    -2.867324     1.879300     9.471329
H     7.635734    -0.521310     3.094559
O     6.888055     0.057845     3.261952
H     6.192420    -0.539394     3.640228
H    -5.677521    -8.014884    -0.716582
O    -4.943956    -8.086994    -0.069041
H    -4.945147    -7.269949     0.453330
H    -5.153205    -0.079674    -4.727055
O    -5.772774    -0.788654    -4.968233
H    -6.608852    -0.343369    -5.167255
H     1.918803    -0.189661    -7.514233
O     1.720850     0.283938    -8.358056
H     2.296296    -0.123862    -9.010659
H     4.898453    -1.397669    -9.298742
O     3.974854    -1.164188    -9.582284
H     3.955562    -1.281868    -10.531374
H     7.561019    -2.594141     4.209783
O     7.709115    -2.630150     3.250476
H     7.213047    -3.418920     2.977470
H     6.705518    -5.913495     2.691559
O     6.769020    -5.238755     3.392968
H     7.643700    -5.328064     3.812473
H    -1.773788     8.973239     3.485532
O    -1.524112     9.269604     4.385731
H    -2.371604     9.409916     4.841278
H    -7.357593     1.616250    -5.266106
O    -7.935980     0.874857    -5.021505
H    -8.836129     1.278721    -4.946773
H     6.952295    -1.097393    -8.395221
O     6.367315    -1.815547    -8.660053
H     6.136223    -2.264897    -7.828714
H    -1.670180     6.130341    -7.237047
O    -2.059738     5.374776    -6.796750
H    -1.691276     5.347432    -5.864952
H     0.015281     3.321694     9.022221
O     0.207889     2.401001     9.277393
H    -0.592602     2.140194     9.782235
H     6.764648    -2.795958    -2.696766
O     6.230119    -3.537861    -2.357064
H     6.695304    -4.350763    -2.603034
H    -4.066206    -3.038568    -4.954217
O    -4.217781    -2.924800    -5.919304
H    -4.762003    -2.129700    -5.976193
H     1.990304     2.185660     8.467418
O     2.655904     2.294938     7.778495
H     3.074230     1.422719     7.663982
H    -6.912243    -5.156100    -1.411613
O    -7.828463    -5.421754    -1.658893
H    -7.958856    -5.018260    -2.541898
H    -3.797416     5.285757     5.690102
O    -3.759561     6.054029     5.099483
H    -2.824794     6.344627     5.196071
H    -7.864773     0.137767    -1.982453
O    -7.370050     0.858480    -2.395048
H    -7.597719     0.849665    -3.348437
H     5.853473     0.116751     0.420070
O     5.633951     0.839083     1.040899
H     6.141806     0.640914     1.854682
H    -6.196659     3.351630     7.384511
O    -6.072665     2.832381     8.213150
H    -6.676394     2.073965     8.123505
H     2.258946    -8.069896    -0.844388
O     2.937274    -8.060094    -1.539390
H     2.710322    -8.772982    -2.153140
H    -2.735324    -3.932675    -6.205674
O    -1.984282    -4.502026    -5.973018
H    -1.708557    -4.212347    -5.075078
H    -5.619491     3.800381     5.298364
O    -6.267291     4.199242     5.915335
H    -6.101244     5.142836     5.900789
H    -1.028828    -7.094644    -3.169571
O    -0.554259    -6.427033    -2.640495
H     0.354143    -6.361651    -3.019876
H     4.460341     2.007795     5.136333
O     3.520215     2.252063     5.014363
H     3.134086     2.269323     5.895462
H     4.134960     4.649803     6.309304
O     4.220806     5.379440     5.691291
H     3.653074     5.141984     4.919578
H     2.789992     3.616915     3.928055
O     2.617543     4.557885     3.761557
H     2.500280     4.657327     2.795197
H     9.412593     0.182074    -1.056743
O     8.606130     0.348515    -0.565087
H     8.425916    -0.469460    -0.072092
H    -2.080127     5.341661     10.646952
O    -2.805114     4.716065     10.876909
H    -3.024770     4.894464     11.791544
H     7.974849    -3.032402     0.338125
O     8.399210    -2.187633     0.594277
H     8.331999    -2.182964     1.556502
H     5.396843     3.652487     3.535224
O     6.053617     3.915371     4.201813
H     5.642932     4.634191     4.704141
H    -4.187643     5.053761     9.777116
O    -4.818499     5.207843     9.053827
H    -5.434025     4.462242     9.050088
H    -7.004040    -3.431302    -3.500618
O    -7.626360    -4.040439    -3.950178
H    -7.106180    -4.484432    -4.651764
H     0.051757     6.140794     10.770966
O    -0.810998     6.475876     10.522304
H    -0.692040     6.906240     9.656348
H     2.619477     1.500309    -4.102400
O     3.498619     1.849782    -3.861224
H     3.815581     1.331789    -3.091152
H    -6.970065    -0.173888     7.205720
O    -7.475427     0.606910     7.485451
H    -8.096638     0.793419     6.780420
H    -2.769832    -9.846478    -0.839837
O    -2.702122    -8.905091    -0.999347
H    -3.606763    -8.534572    -0.759966
H    -10.030056     3.137085    -4.916759
O    -10.151539     2.220049    -4.636338
H    -10.368377     2.305404    -3.686861
H    -2.073437    -3.001696     4.607679
O    -2.950373    -3.437944     4.675852
H    -2.945904    -4.055566     3.919423
H    -0.202450    -7.968425     2.480788
O     0.624156    -7.761703     2.929998
H     1.342044    -8.060784     2.344322
H     6.699838    -2.394724     6.401611
O     7.146751    -3.106373     5.938498
H     6.513494    -3.838326     5.898977
H    -5.277262    -1.966185     6.932369
O    -5.950444    -1.464917     6.447398
H    -5.934514    -1.841808     5.538181
H     0.878608     3.046340    -7.114418
O     1.794572     2.710985    -7.168285
H     1.778756     1.963831    -7.794614
H    -3.911201     8.788101     6.666529
O    -3.903759     8.786465     5.709230
H    -4.035689     7.860382     5.440041
H    -3.184288     10.397435    -3.176550
O    -3.954704     10.620942    -2.596241
H    -4.191764     11.525837    -2.815197
H     9.400991    -4.092136     4.057450
O     9.117009    -4.769120     4.679345
H     8.688489    -4.295005     5.402923
H    -0.735851    -5.977410    -5.845837
O    -0.035626    -6.547284    -5.511224
H     0.802398    -6.089703    -5.727387
H     1.949608     8.230581     0.712040
O     1.646645     8.560783    -0.163577
H     2.455517     8.603668    -0.702789
H     3.538965     2.930281    -6.657561
O     4.364618     2.637075    -6.246488
H     4.116544     2.363394    -5.338398
H     3.800031     7.113373    -1.227906
O     4.016531     8.047876    -1.436692
H     4.375305     7.994078    -2.334490
H     4.424547    -0.010706    -7.906294
O     4.800752     0.134104    -7.036237
H     4.622973     1.066815    -6.793171
H     6.056660     1.919377    -0.466416
O     6.623779     2.110758    -1.227348
H     7.445862     1.627096    -1.032581
H     6.663975    -8.447811    -1.600119
O     7.301944    -8.239897    -2.335736
H     7.664663    -9.075840    -2.623753
H    -5.301986    -5.748051    -5.420237
O    -5.915546    -5.073156    -5.735853
H    -5.360568    -4.307420    -5.971551
H     0.717546     7.183851     7.602262
O    -0.184497     7.215245     7.960030
H    -0.738462     7.233080     7.141571
H    -8.887146    -2.777840    -4.119700
O    -9.404185    -1.967095    -3.952598
H    -9.114432    -1.303221    -4.582102
H    -2.417385    -5.962176    -2.151136
O    -3.293599    -5.671456    -2.421303
H    -3.481168    -6.045230    -3.307347
H    -2.987837    -5.870020    -5.418303
O    -3.591213    -6.477065    -4.947082
H    -3.113447    -7.299663    -4.779908
H    -1.345728     3.750803    -6.986483
O    -0.809845     2.993272    -6.713544
H    -1.048033     2.208606    -7.264246
H    -0.171952     0.436604    -8.218088
O    -1.066766     0.677098    -7.935126
H    -1.246423     0.152639    -7.138733
H    -10.383750     4.116219    -2.751902
O    -10.455280     3.336715    -2.185387
H    -9.627469     3.307304    -1.674080
H     4.614496     4.071648     1.727261
O     4.398854     3.152196     2.004956
H     5.112254     2.571824     1.726536
H     6.515267     1.384229    -4.210204
O     6.207809     0.761540    -3.516937
H     6.240137     1.256284    -2.672785
H     9.640408    -2.256166    -0.916060
O     9.919502    -2.042391    -1.815232
H     9.121369    -1.700084    -2.259876
H     9.975406    -3.351671    -3.085025
O     9.706327    -4.002234    -3.760557
H     9.316279    -3.492624    -4.481381
H    -7.718217    -8.524556    -1.682959
O    -6.977502    -7.933510    -1.809982
H    -7.351095    -7.018784    -1.800523
H     4.210439     6.075169    -3.817183
O     4.872983     6.774876    -3.731076
H     5.707856     6.319096    -3.591506
H     0.085211    -8.154569    -5.220021
O     0.104401    -9.137599    -5.088498
H     0.254499    -9.501756    -5.960964
H    -2.351534    -8.647406    -2.724220
O    -2.114887    -8.384241    -3.633241
H    -1.470764    -9.005711    -3.991285
H     2.156199    -10.810672    -3.497784
O     2.114406    -9.855935    -3.473248
H     1.331077    -9.581428    -4.000635
H     6.874701     3.315977    -4.564465
O     6.930523     2.637394    -5.264971
H     6.138677     2.774123    -5.807158
H    -3.578420    -3.693202     7.712253
O    -3.687964    -2.904710     7.182228
H    -3.436378    -3.144677     6.264258
H    -0.625615    -3.342272    -6.728453
O     0.007795    -2.613520    -6.734710
H    -0.471173    -1.836113    -6.393699
H     0.644577     0.470733     8.752103
O     0.649958    -0.243890     8.111315
H    -0.273484    -0.528456     8.022044
H    -5.859612     7.388857    -4.201337
O    -6.286192     6.775191    -4.831441
H    -6.595126     6.031532    -4.267128
H    -5.120920     9.086883    -2.789829
O    -5.510421     8.204644    -2.711371
H    -4.910859     7.727758    -2.114402
H    -9.661212     5.858818    -4.661322
O    -10.197928     5.055222    -4.501796
H    -11.077551     5.261285    -4.819965
H     2.803390     6.516560     6.144763
O     1.843534     6.617679     6.239939
H     1.495922     5.705776     6.137934
H     4.865651     8.538325     0.097035
O     5.175358     8.536237     1.020311
H     5.581666     7.671559     1.150634
H     4.132323    -7.428763    -4.340174
O     3.373873    -7.709795    -4.883927
H     3.089137    -8.549660    -4.508685
H     0.423927     8.672644     4.233118
O     1.100082     8.025161     4.008154
H     1.321174     7.530807     4.823528
H     5.275471     4.181824    -3.149826
O     6.236615     4.150009    -3.094341
H     6.442386     3.566221    -2.347388
H    -2.581682    -1.519506     7.566733
O    -2.068166    -0.728560     7.787596
H    -2.691726    -0.099598     8.161017
H    -8.967056     7.992069    -4.159516
O    -8.907504     7.410421    -4.918982
H    -7.950993     7.238046    -5.051638
H     3.503907    -8.981596     1.091355
O     2.829667    -8.346892     1.339338
H     3.307371    -7.543866     1.620590
H     3.653227     8.159936     1.870063
O     2.867860     7.589794     1.986620
H     2.401521     7.840497     2.797652
N    -1.746179     9.942302    -4.060886
H    -1.045243     10.423563    -3.604087
H    -1.548392     9.016703    -3.832610
