42

H    -0.375361     6.885871    -2.235706
O    -1.133642     7.287358    -2.735168
H    -1.906734     7.170135    -2.134961
H    -0.994212     4.473647    -3.848947
O    -1.653024     5.109298    -4.179353
H    -1.444957     5.953789    -3.724650
H     0.700950     3.248310    -2.571552
O     0.674918     3.648928    -3.477995
H     0.661085     2.857956    -4.031569
H    -1.199211     1.472544    -3.878778
O    -1.805875     2.139778    -4.263478
H    -1.503094     2.358779    -5.166690
H     2.222776     5.825954    -1.166030
O     3.150922     5.523937    -1.018593
H     3.346543     4.913913    -1.753638
H     3.432817     3.383628    -3.529679
O     3.355325     4.370577    -3.466359
H     2.392549     4.465449    -3.530477
H     1.340803     1.580801    -5.839651
O     1.172500     1.008573    -5.059112
H     1.554310     0.148290    -5.343999
H    -1.344781     5.896465    -7.112578
O    -2.007153     5.304441    -6.745798
H    -1.790434     5.279485    -5.764895
H     2.652447     1.415602    -4.077096
O     3.525370     1.786918    -3.844864
H     3.837141     1.284691    -3.054987
H     0.731487     2.913701    -7.155980
O     1.691286     2.685514    -7.217389
H     1.721471     1.923694    -7.832394
H     3.516863     2.913017    -6.655299
O     4.350233     2.632031    -6.257635
H     4.108236     2.293554    -5.368353
H    -1.415102     3.706295    -6.970656
O    -0.925296     2.884405    -6.714583
H    -1.173508     2.138896    -7.312938
H     4.369006     6.280249    -3.938899
O     5.060548     6.918462    -3.717531
H     5.781196     6.350936    -3.414368
N     1.025174     5.757677    -6.133515
H     0.720545     5.274850    -5.356351
H     1.600133     5.130986    -6.585280
