39
Coordinates from ORCA-job grain_mol_opt.QMRegion
  H   1.70084561136971     -4.66997230009195     -0.21909180638179
  O   1.80031926550876     -5.33141432935557      0.50929418476170
  H   1.28322736004948     -6.10637803417060      0.22898253607903
  H   2.36561152286441     -6.40980918988310     -4.06881386653009
  O   2.01866555838485     -6.12063348461722     -3.20786062168127
  H   2.46011399327524     -6.71448617737962     -2.55715860725575
  H   -2.32219572141622     -7.94080236600925      0.65473512780173
  O   -1.90688996257921     -7.45177215247320      1.39206229531763
  H   -2.63592003944681     -7.01944276499841      1.85290215299974
  H   -0.01761948798306     -7.15659202546034     -1.16321569007124
  O   0.36596938521982     -7.60977939749230     -0.35927060155607
  H   -0.32957983269240     -7.50271634582970      0.30462649375162
  H   2.62363856603457     -8.11426645967906     -0.68372058124122
  O   3.03931956893862     -8.01816735457725     -1.55615166392269
  H   2.69913583294166     -8.75209950834309     -2.11182676629173
  H   -0.99062106529214     -7.12533116272452     -3.15857236825733
  O   -0.50207077125008     -6.47377905191016     -2.61248700766415
  H   0.38561605125494     -6.37542963122143     -3.04651372017842
  H   -2.48008742660816     -9.70241602620933     -0.76544476089291
  O   -2.65939192957737     -8.77961059585152     -0.97586855355239
  H   -3.61109700519710     -8.61814470314891     -0.71889762260376
  H   -0.15236328922229     -8.06660565299111      2.68209673073937
  O   0.69738564532566     -7.79411531132488      3.04467528331775
  H   1.38241715299780     -8.12538214104863      2.43845372101927
  H   0.12999175698628     -8.14960206363630     -5.37338158542198
  O   0.17592679988801     -9.12598148010996     -5.21620494918739
  H   0.42346186943676     -9.49740176401567     -6.06761382451197
  H   -2.38315312247013     -8.73068807633756     -2.85092720478947
  O   -2.06491514786945     -8.39320472709097     -3.70888182405607
  H   -1.53260672921906     -9.06506955155516     -4.15220424783317
  H   1.24638405519224    -10.23364094689696     -2.47547600322248
  O   1.88281280500187     -9.92369676252526     -3.14642032908397
  H   1.31433785975873     -9.61556950047354     -3.88064135388227
  H   3.72097005043841     -8.92819040632762      1.23551301439395
  O   2.98676371870299     -8.31294734550873      1.33163151790134
  H   3.42200136898899     -7.47818501579414      1.63076155034307
  O   0.06630797495859    -10.25383347187928     -0.98239531071452
  H   0.20057502088722     -9.31120165022360     -0.71133698889021
  H   0.45334779627792    -10.77934056705473     -0.27622299558390
