603

H     0.169473     3.025705    -0.651286
O     0.697021     2.361349    -1.145019
H     1.634364     2.493902    -0.868256
H    -0.097592    -1.328482     3.161142
O     0.292979    -0.624344     2.620909
H    -0.189401     0.186103     2.855174
H    -2.427116     2.392424    -0.518124
O    -2.217208     1.919138     0.304527
H    -2.227872     0.972269     0.075194
H    -4.690405     0.507771     2.184966
O    -5.002593    -0.427387     2.194765
H    -4.494700    -0.899961     1.527049
H     0.044441    -0.320809     0.965908
O    -0.151953    -0.081638     0.039501
H     0.183472     0.817072    -0.076904
H    -0.167144    -3.601438     3.778946
O    -0.451251    -2.774597     4.202431
H     0.192601    -2.603954     4.906271
H    -4.920949     2.493642     1.340859
O    -4.281562     2.084421     1.956144
H    -3.437314     2.072753     1.445464
H    -3.279615     3.882153    -2.191009
O    -2.540152     3.287355    -1.960209
H    -2.177596     3.005037    -2.819965
H    -0.127182    -3.816382     0.503788
O     0.207642    -2.998994     0.925965
H    -0.582886    -2.517290     1.236940
H    -2.396952    -1.568101     2.471724
O    -2.203006    -2.030117     1.629990
H    -2.461782    -1.441717     0.901562
H     2.064135    -1.438310    -1.105261
O     2.294359    -1.693677    -0.188116
H     1.506065    -2.126489     0.191667
H    -1.424287     1.800568     1.929417
O    -1.516675     1.399153     2.803722
H    -1.506610     2.109461     3.471055
H     0.207145    -2.705309    -1.564469
O    -0.551405    -2.097279    -1.618664
H    -0.377147    -1.372183    -0.981859
H    -3.440758    -2.949120    -0.397427
O    -2.719671    -3.436404    -0.817217
H    -2.012041    -2.801541    -1.031603
H     2.744369     0.121076     2.957456
O     2.841438    -0.064603     3.918841
H     2.927636     0.827316     4.326833
H    -3.577540     6.356554    -0.513499
O    -3.339973     7.022330    -1.210913
H    -3.203715     7.866740    -0.737537
H     3.876502     0.588608     1.214783
O     2.926638     0.401379     1.327761
H     2.694644    -0.349400     0.744178
H    -5.799705     0.812730    -1.603502
O    -4.891189     1.143560    -1.472695
H    -5.007638     1.969740    -0.958643
H    -1.263306     5.374778     2.241232
O    -1.883315     4.623835     2.120558
H    -1.961392     4.202863     2.981816
H     3.459892     2.768696     0.461405
O     3.214849     2.728223    -0.478593
H     3.552587     1.888729    -0.831490
H     1.501107    -4.690337    -2.249352
O     1.560288    -3.915090    -1.672928
H     2.353680    -3.448739    -2.019943
H    -0.933210    -0.088436    -2.536126
O    -0.300903     0.567935    -2.855887
H    -0.045477     1.148983    -2.116151
H     1.703017    -4.686017    -0.177284
O     1.810619    -5.325389     0.563299
H     1.352052    -6.137613     0.262674
H    -1.221779    -3.269358    -2.881089
O    -1.043180    -3.949505    -3.543819
H    -0.914126    -4.797569    -3.077649
H    -2.828722     3.262224     4.722572
O    -1.847851     3.267137     4.690638
H    -1.554986     2.866413     5.526868
H     0.902321     5.017602     4.112630
O    -0.045055     5.243259     4.168635
H    -0.509850     4.433545     4.417146
H    -1.726305    -4.666515    -0.379460
O    -0.959492    -5.204770    -0.094210
H    -1.305556    -5.895601     0.480184
H    -3.957591     5.814554    -2.571576
O    -4.302989     4.980012    -2.906031
H    -4.144969     4.950144    -3.873845
H    -2.437886    -3.717458     1.929706
O    -2.453178    -4.622906     2.302643
H    -1.512648    -4.857344     2.444407
H    -4.692219    -2.999799    -2.908849
O    -3.837603    -3.227112    -3.313522
H    -3.504166    -4.020875    -2.850313
H     0.300376     1.351138     4.636087
O     0.803332     2.114915     4.306645
H     0.847906     2.771701     5.015769
H    -4.645267    -5.195040    -1.589381
O    -5.350368    -4.847188    -1.016218
H    -5.138037    -5.204040    -0.132895
H     2.349610    -6.464243    -4.042900
O     2.008548    -6.140482    -3.189064
H     2.443876    -6.714744    -2.526807
H     0.475049    -3.370458    -4.002335
O     1.277247    -2.998151    -4.421719
H     0.958443    -2.624723    -5.269662
H     1.944660    -1.764384     2.995306
O     2.104642    -2.693870     2.775412
H     1.421928    -2.908109     2.105365
H    -3.016561    -1.819866    -3.210515
O    -2.598794    -0.931707    -3.140671
H    -3.256356    -0.287855    -3.459825
H    -3.236793     4.947441     1.104685
O    -4.019489     5.318513     0.650160
H    -4.437740     5.873691     1.357247
H     0.838720     2.238570     2.616943
O     0.941879     2.237492     1.646034
H     1.672733     1.618994     1.481540
H     0.146267     5.651834    -0.720636
O     0.666227     6.317892    -1.225606
H     0.802929     7.116495    -0.666571
H     0.282639     7.019165     2.634623
O    -0.075145     6.638253     1.815206
H     0.593875     5.973222     1.552874
H    -2.509975     0.181837     3.349567
O    -2.730597    -0.634313     3.851947
H    -1.970529    -0.674015     4.474206
H    -0.931748     0.516214     6.039942
O    -0.654760     0.000673     5.264243
H     0.061977    -0.599831     5.549524
H     0.708390    -5.007695     1.977818
O     0.164437    -5.122962     2.780384
H     0.312765    -6.043970     3.049219
H    -2.101025    -8.108989     0.425743
O    -1.783297    -7.622558     1.213813
H    -2.572441    -7.316803     1.668646
H    -0.425148     6.861915    -2.284967
O    -1.172310     7.279693    -2.784857
H    -1.963138     7.148026    -2.223622
H    -1.154874     4.293403     0.602233
O    -0.779731     4.358840    -0.292656
H    -1.483708     4.116738    -0.927837
H    -4.452577     2.703719     3.519405
O    -4.457199     2.868565     4.485051
H    -4.535649     1.983135     4.889264
H     2.009604    -3.598678     4.250867
O     1.945530    -4.074224     5.102267
H     2.449183    -3.537971     5.735998
H     4.681160    -3.185108     0.854735
O     4.522946    -3.106538    -0.111865
H     3.662047    -2.632927    -0.195863
H    -2.734912    -0.764953    -1.347502
O    -3.066264    -0.500311    -0.472899
H    -3.868360     0.022983    -0.680185
H    -1.619629    -0.759362    -4.623975
O    -1.111286    -0.538215    -5.425569
H    -0.405315     0.060828    -5.136121
H     1.792956    -1.702388    -3.363838
O     1.879913    -0.957739    -2.737391
H     1.100208    -0.383709    -2.868398
H     3.651164    -3.124288     2.563627
O     4.611503    -3.348338     2.492454
H     4.670508    -4.308723     2.615433
H     3.426873    -6.126783     3.123835
O     3.784034    -5.920753     2.225441
H     3.046410    -5.576513     1.681791
H    -3.359328     1.602446    -4.166058
O    -4.202397     1.126828    -3.979422
H    -4.423335     1.268097    -3.022925
H    -5.121755     4.114275     0.084071
O    -5.556016     3.246445    -0.023994
H    -6.486024     3.362649    -0.308270
H     6.723756    -1.154610    -1.333784
O     5.949408    -1.010890    -0.783340
H     5.533947    -1.881369    -0.590572
H     4.595955    -3.147196    -2.455078
O     3.728370    -2.978466    -2.872686
H     3.736782    -3.594154    -3.631315
H     4.410580    -2.304107     5.639849
O     4.067539    -2.774312     6.430277
H     4.407267    -3.677355     6.346049
H    -0.886418     6.254429     4.969592
O    -1.502863     6.845690     5.476684
H    -1.429818     7.711547     5.011168
H     4.683567    -0.118190    -1.438935
O     3.914269     0.421521    -1.701636
H     3.225632    -0.180972    -2.036171
H    -0.772348     4.526714    -4.007007
O    -1.557179     5.066540    -4.215230
H    -1.411341     5.932342    -3.788757
H     0.632119     3.208005    -2.628933
O     0.640214     3.588111    -3.535998
H     0.692637     2.827153    -4.124280
H    -5.383874    -5.234707     1.774004
O    -4.683416    -5.824882     1.418669
H    -3.845587    -5.405983     1.693024
H     7.880460    -1.647382    -4.003708
O     7.618709    -1.338859    -3.103557
H     7.128362    -0.496628    -3.258167
H     3.719528    -5.043860    -5.284726
O     4.478996    -4.668824    -4.800195
H     4.865294    -5.380190    -4.256156
H    -3.816583    -0.027190     4.939928
O    -4.421067     0.430476     5.574556
H    -5.079896    -0.232339     5.859406
H     3.473890    -5.933605    -0.518349
O     4.346381    -5.681133    -0.832595
H     4.417689    -4.718982    -0.685159
H     4.993531    -0.305838    -4.133211
O     4.462717    -1.018302    -4.527247
H     4.137384    -1.605848    -3.812509
H    -1.188851     1.572507    -3.919142
O    -1.841323     2.191352    -4.304153
H    -1.483038     2.528147    -5.148130
H     4.901051    -6.299760    -2.311282
O     5.237630    -6.619915    -3.177271
H     6.057468    -7.097579    -2.990288
H     8.752144    -5.049377    -2.899205
O     8.061346    -5.472492    -2.344297
H     8.100701    -6.429239    -2.450011
H     2.295131     4.719660     0.490786
O     1.714378     4.695496     1.260626
H     1.360517     3.773595     1.333264
H    -4.434941    -2.680272     4.223861
O    -5.329901    -2.343315     4.021405
H    -5.195005    -1.560262     3.447920
H    -5.854871    -3.237069     1.303908
O    -6.316688    -3.798710     1.969189
H    -6.132829    -3.365455     2.821746
H     1.635281     3.439073     6.894972
O     1.008576     3.951816     6.362933
H     0.225100     4.096614     6.934643
H     4.981164    -2.169183     3.636280
O     4.996275    -1.453483     4.303331
H     4.182403    -0.900275     4.146231
H     2.383134    -5.593482     4.838396
O     2.768102    -6.474501     4.576242
H     2.026384    -7.058886     4.397622
H     2.276436    -4.489062    -6.786649
O     2.107436    -4.981232    -5.973269
H     1.837727    -4.293715    -5.316008
H     6.440192    -4.080758    -0.486800
O     7.193994    -4.481998    -0.022913
H     7.705333    -4.899547    -0.743877
H    -1.771986     4.330828     7.618302
O    -0.916012     4.491312     8.079763
H    -0.699068     5.438090     7.991899
H    -5.150332     5.681779    -5.573894
O    -4.539118     4.921171    -5.595648
H    -3.781347     5.141453    -6.158663
H     3.295769    -2.489438    -8.422861
O     3.208479    -3.025443    -7.623734
H     4.083835    -2.998640    -7.192462
H    -0.714934     8.823431    -2.232430
O    -0.597210     9.650631    -1.710546
H     0.163743     9.477711    -1.131610
H     2.036499    -0.932155     5.227699
O     1.464370    -1.462344     5.812050
H     1.555910    -1.120709     6.710805
H     5.210255    -1.987719    -5.671890
O     5.561449    -2.750398    -6.195826
H     5.289941    -3.543563    -5.681996
H     5.686724    -5.215525     4.696485
O     5.161799    -5.136146     5.522067
H     4.443721    -5.771435     5.432160
H    -4.022143     1.085637     7.015248
O    -3.835537     1.559836     7.862470
H    -4.712394     1.946123     8.120165
H    -1.915013     9.600247    -0.700624
O    -2.776356     9.466627    -0.230066
H    -3.389275     10.095238    -0.614835
H    -5.982808     4.663899    -2.922520
O    -6.890056     4.541421    -3.269313
H    -6.794454     3.842183    -3.948883
H     0.110368    -7.068955    -1.154929
O     0.574636    -7.505410    -0.407552
H    -0.105399    -7.705995     0.238643
H    -7.670367     3.754027    -1.965125
O    -7.930869     3.162877    -1.228040
H    -7.782631     2.256281    -1.570843
H     3.938899    -0.909597     7.008273
O     3.942772     0.054629     7.003537
H     4.754434     0.350402     6.574622
H     2.213759     5.802173    -1.136673
O     3.150351     5.513169    -1.021052
H     3.331611     4.977152    -1.815923
H     6.556164    -5.911058     0.682060
O     6.189675    -6.651135     1.212061
H     5.283182    -6.379255     1.437339
H    -3.914927     4.539463     7.587122
O    -3.324781     4.030682     6.995217
H    -3.534986     3.106861     7.233085
H     5.778977    -7.928676     0.138368
O     5.496079    -8.614848    -0.502377
H     4.666425    -8.291800    -0.897631
H    -0.603134     1.997063     7.715374
O    -1.235823     1.933349     6.979885
H    -2.101848     1.776429     7.374482
H    -6.406113    -0.163926     1.059847
O    -6.722933    -0.246105     0.145747
H    -7.640584    -0.520811     0.159637
H    -5.376508    -3.095714    -0.599193
O    -5.129617    -2.394831     0.030209
H    -5.702510    -1.623832    -0.156488
H     4.269753     5.587758     0.367904
O     4.600492     5.686171     1.274504
H     3.902595     6.192186     1.726547
H    -9.050370    -1.787459    -2.268982
O    -8.505597    -1.586440    -1.480648
H    -8.631124    -2.326127    -0.846205
H    -5.546749     3.456972    -5.514655
O    -6.061679     2.742068    -5.104167
H    -5.393380     2.158433    -4.690724
H     3.178994    -0.861629    -5.635121
O     2.324874    -0.984064    -6.103606
H     2.415734    -1.830874    -6.579955
H     8.116028    -1.298518    -5.997535
O     8.127146    -2.164153    -5.544236
H     7.273530    -2.567233    -5.798582
H     7.611978     1.040596    -6.270997
O     7.428206     0.192903    -6.687816
H     6.447203     0.138440    -6.726903
H    -7.866389    -3.741727     0.910300
O    -8.543637    -3.635431     0.224722
H    -8.440226    -4.391983    -0.379737
H    -2.473900     8.712119     1.331369
O    -2.320761     8.121783     2.082352
H    -1.547898     7.572969     1.859481
H    -4.510138     6.389167     3.519858
O    -4.674351     6.828481     2.663987
H    -3.908172     7.412450     2.530419
H     3.373394     3.466542    -3.540545
O     3.215316     4.434677    -3.443958
H     2.250434     4.495314    -3.553849
H    -6.119839    -1.630130    -3.449380
O    -6.202093    -2.212624    -2.667689
H    -6.988870    -1.910898    -2.160117
H     6.429434     1.053492     4.775525
O     6.030946     1.587526     5.479574
H     6.214933     2.508321     5.192428
H     1.348036     1.741119    -5.797651
O     1.154302     1.141541    -5.046118
H     1.522634     0.281232    -5.318116
H    -2.556122     2.907878     10.498382
O    -2.338203     2.002289     10.226952
H    -2.931544     1.796762     9.492523
H     7.600859    -0.482548     3.116725
O     6.847556     0.088711     3.285902
H     6.157266    -0.516430     3.661115
H    -5.640574    -8.086674    -0.730609
O    -4.907073    -8.154295    -0.082529
H    -4.916065    -7.338935     0.442354
H    -5.185435    -0.134243    -4.714358
O    -5.798518    -0.848091    -4.958231
H    -6.638190    -0.409615    -5.157033
H     1.889692    -0.170824    -7.495751
O     1.688118     0.303094    -8.338484
H     2.268409    -0.097082    -8.991500
H     4.882259    -1.345223    -9.281236
O     3.956770    -1.119705    -9.565060
H     3.939689    -1.234020    -10.514594
H     7.543821    -2.560206     4.225470
O     7.693342    -2.592036     3.266270
H     7.204516    -3.384221     2.990157
H     6.720296    -5.882611     2.695797
O     6.776903    -5.209827     3.399705
H     7.652194    -5.292190     3.819350
H    -1.799420     8.958291     3.416206
O    -1.451797     9.302756     4.268270
H    -2.251068     9.426995     4.821834
H    -7.404632     1.543858    -5.249424
O    -7.976532     0.796137    -5.008415
H    -8.880361     1.191271    -4.933485
H     6.932258    -1.028657    -8.374914
O     6.354498    -1.751548    -8.642731
H     6.126571    -2.205508    -7.813021
H    -1.708545     6.250592    -6.988976
O    -2.102802     5.422220    -6.719563
H    -1.856510     5.289317    -5.755628
H    -0.054838     3.267248     9.052573
O     0.142326     2.346889     9.303777
H    -0.655304     2.078396     9.807577
H     6.755245    -2.747216    -2.682261
O     6.227509    -3.495264    -2.345312
H     6.700555    -4.302899    -2.593584
H    -4.071245    -3.082354    -4.950392
O    -4.223375    -2.967014    -5.915188
H    -4.774317    -2.176415    -5.970007
H     1.928450     2.151106     8.494659
O     2.592332     2.270329     7.806008
H     3.020089     1.403186     7.687439
H    -6.900893    -5.236937    -1.417457
O    -7.814565    -5.509854    -1.666266
H    -7.947750    -5.104814    -2.548177
H    -3.970734     5.034854     5.298250
O    -4.056783     5.978215     5.106433
H    -3.134493     6.306034     5.225533
H    -7.901364     0.049935    -1.971809
O    -7.413618     0.777144    -2.381325
H    -7.639457     0.768792    -3.335216
H     5.814747     0.147050     0.443061
O     5.587618     0.865174     1.065972
H     6.096800     0.669758     1.879470
H    -6.266729     3.262664     7.401102
O    -6.136829     2.748559     8.232784
H    -6.731663     1.982993     8.144563
H     2.296865    -8.068771    -0.850666
O     2.975667    -8.050416    -1.545010
H     2.755782    -8.763292    -2.161335
H    -2.731050    -3.960252    -6.203462
O    -1.975421    -4.523861    -5.971715
H    -1.702768    -4.234152    -5.072847
H    -5.770817     3.609837     5.316990
O    -6.477430     3.987593     5.882697
H    -6.252198     4.922399     5.938110
H    -0.998118    -7.116069    -3.176274
O    -0.530191    -6.446068    -2.644343
H     0.377919    -6.371004    -3.022702
H     4.400975     2.010337     5.162808
O     3.458342     2.245063     5.041482
H     3.072120     2.256764     5.922478
H     4.049407     4.645729     6.343775
O     4.126445     5.379483     5.729553
H     3.562396     5.138750     4.956133
H     2.716654     3.607901     3.958241
O     2.533484     4.547487     3.796121
H     2.416939     4.649661     2.829755
H     9.374217     0.250016    -1.030147
O     8.566201     0.407371    -0.538068
H     8.392833    -0.414113    -0.048515
H    -2.176863     5.256435     10.597019
O    -2.880559     4.613249     10.829198
H    -3.018314     4.702187     11.775029
H     7.965085    -2.982233     0.353016
O     8.381637    -2.134570     0.612306
H     8.313247    -2.133373     1.574443
H     5.323114     3.669127     3.568035
O     5.975577     3.934764     4.237952
H     5.558391     4.650025     4.739932
H    -4.329858     4.887501     9.735123
O    -4.939437     5.088379     8.997427
H    -5.548612     4.332738     8.949248
H    -7.006660    -3.506203    -3.500825
O    -7.623093    -4.119522    -3.952823
H    -7.098209    -4.556557    -4.655327
H    -0.861779     7.391309     10.870635
O    -1.271414     6.805001     10.230514
H    -0.780568     6.955627     9.383098
H     2.571885     1.514108    -4.077592
O     3.448125     1.869855    -3.835547
H     3.768651     1.353901    -3.065778
H    -7.009454    -0.279469     7.219403
O    -7.517281     0.500109     7.498436
H    -8.145476     0.676198     6.796857
H    -2.715928    -9.891310    -0.856876
O    -2.656711    -8.948801    -1.013090
H    -3.564961    -8.587410    -0.773628
H    -10.091269     3.038781    -4.898106
O    -10.204819     2.119823    -4.620793
H    -10.423312     2.199737    -3.671308
H    -2.086813    -3.058814     4.613316
O    -2.960216    -3.502616     4.679409
H    -2.949379    -4.117795     3.920923
H    -0.168863    -8.000566     2.471855
O     0.655308    -7.787865     2.922758
H     1.376547    -8.078337     2.336841
H     6.679256    -2.375938     6.416980
O     7.133145    -3.082135     5.952329
H     6.506637    -3.819675     5.909583
H    -5.302714    -2.060346     6.938138
O    -5.979571    -1.562433     6.454758
H    -5.959741    -1.936175     5.544100
H     0.819561     3.053943    -7.085878
O     1.738827     2.727482    -7.140873
H     1.729971     1.982192    -7.769424
H    -3.557448     8.634587     6.675610
O    -3.737735     9.105084     5.840121
H    -4.282120     8.479033     5.348770
H    -2.121560     10.306330    -2.690365
O    -3.023012     10.484013    -2.995079
H    -2.952148     11.121885    -3.704534
H     9.397855    -4.040796     4.069665
O     9.119630    -4.722291     4.689240
H     8.686216    -4.254351     5.413911
H    -0.713024    -5.987849    -5.848296
O    -0.007818    -6.552272    -5.514901
H     0.826113    -6.086228    -5.728971
H     1.764018     8.273373     0.714852
O     1.461683     8.596151    -0.162736
H     2.277652     8.640514    -0.690637
H     3.480901     2.961610    -6.627195
O     4.308818     2.673639    -6.216956
H     4.062606     2.395788    -5.309596
H     3.682283     7.138400    -1.179122
O     3.884548     8.075700    -1.388845
H     4.256020     8.024497    -2.281490
H     4.394300     0.033105    -7.884888
O     4.768601     0.177972    -7.014034
H     4.581952     1.108202    -6.767590
H     6.001610     1.954511    -0.437455
O     6.567969     2.152800    -1.197126
H     7.394283     1.676364    -1.002705
H     6.706287    -8.403080    -1.604169
O     7.343112    -8.186832    -2.338342
H     7.714632    -9.018289    -2.628106
H    -5.281851    -5.801341    -5.426095
O    -5.901391    -5.131082    -5.739915
H    -5.353219    -4.359533    -5.972720
H     0.621257     7.054859     7.417433
O    -0.275761     7.119857     7.802113
H    -0.849748     7.129515     6.986136
H    -8.895060    -2.867853    -4.119406
O    -9.419590    -2.062351    -3.950173
H    -9.135255    -1.393913    -4.577322
H    -2.397891    -5.999596    -2.155495
O    -3.276796    -5.716524    -2.425068
H    -3.460050    -6.088735    -3.312706
H    -2.966715    -5.902121    -5.422446
O    -3.564872    -6.516309    -4.953716
H    -3.079619    -7.334995    -4.788955
H    -1.410811     3.737580    -6.957422
O    -0.867857     2.983166    -6.688066
H    -1.100057     2.199031    -7.241340
H    -0.206229     0.437937    -8.199454
O    -1.104083     0.667950    -7.917513
H    -1.278798     0.140829    -7.121816
H    -10.456002     4.007095    -2.731056
O    -10.521047     3.226001    -2.165975
H    -9.692833     3.201904    -1.655108
H     4.535127     4.087754     1.762638
O     4.331320     3.164633     2.037771
H     5.050369     2.593396     1.755179
H     6.468744     1.435102    -4.182383
O     6.166942     0.807073    -3.491363
H     6.193293     1.299808    -2.645801
H     9.624420    -2.186411    -0.897212
O     9.902304    -1.967508    -1.795519
H     9.101468    -1.630972    -2.239771
H     9.971388    -3.271979    -3.069379
O     9.709073    -3.922875    -3.747270
H     9.314835    -3.414571    -4.466753
H    -7.675889    -8.611643    -1.700755
O    -6.940481    -8.013374    -1.824725
H    -7.322445    -7.102171    -1.812748
H     4.120906     6.105974    -3.772954
O     4.778592     6.809918    -3.684070
H     5.616534     6.359438    -3.545818
H     0.127687    -8.159206    -5.228699
O     0.155707    -9.142446    -5.100140
H     0.310116    -9.502517    -5.973551
H    -2.306854    -8.682377    -2.737048
O    -2.072070    -8.414224    -3.645059
H    -1.421687    -9.028355    -4.004472
H     2.221282    -10.801809    -3.512829
O     2.170643    -9.847592    -3.485137
H     1.385419    -9.578533    -4.012520
H     6.810629     3.370561    -4.529682
O     6.873752     2.695028    -5.232699
H     6.081068     2.826405    -5.774997
H    -3.588759    -3.774038     7.713717
O    -3.704161    -2.984358     7.186682
H    -3.450078    -3.219161     6.267896
H    -0.626472    -3.348937    -6.722500
O     0.000528    -2.614705    -6.725710
H    -0.485570    -1.842561    -6.382688
H     0.596772     0.423733     8.772533
O     0.608349    -0.287434     8.128145
H    -0.311971    -0.581097     8.037447
H    -5.878598     7.348937    -4.225152
O    -6.377312     6.729566    -4.789436
H    -6.662467     5.995559    -4.201279
H    -4.334101     9.087723    -3.226924
O    -4.865806     8.288295    -3.125214
H    -4.457515     7.808712    -2.386305
H    -9.748020     5.761224    -4.634655
O    -10.278001     4.953408    -4.475507
H    -11.158789     5.151548    -4.795516
H     2.690431     6.502446     6.189377
O     1.729962     6.590155     6.291906
H     1.396076     5.675379     6.175221
H     4.742167     8.561740     0.142491
O     5.057800     8.560765     1.063987
H     5.467959     7.697743     1.192927
H     4.167129    -7.399102    -4.343018
O     3.411681    -7.685553    -4.888117
H     3.134526    -8.529154    -4.515609
H     0.301193     8.637942     4.278129
O     0.986891     7.998649     4.052979
H     1.208286     7.503994     4.866807
H     5.202483     4.219381    -3.113880
O     6.163939     4.193360    -3.058983
H     6.373636     3.610515    -2.312476
H    -2.609627    -1.592591     7.576180
O    -2.105975    -0.796286     7.800990
H    -2.737930    -0.177202     8.176233
H    -9.075644     7.902705    -4.126106
O    -9.007774     7.320701    -4.884478
H    -8.049554     7.161977    -5.017916
H     3.547885    -8.975278     1.082934
O     2.867683    -8.347625     1.332577
H     3.337844    -7.541013     1.616314
H     3.519284     8.175005     1.884339
O     2.732030     7.606423     1.992340
H     2.280982     7.838189     2.817346
N    -3.448008     7.558296     8.235024
H    -4.132855     6.895116     8.397049
H    -2.867338     7.519805     9.007015
