603

H     0.190892     3.017588    -0.651142
O     0.716198     2.353807    -1.147577
H     1.654342     2.483289    -0.871829
H    -0.079388    -1.344718     3.151681
O     0.310926    -0.639697     2.612195
H    -0.169357     0.170758     2.850101
H    -2.407413     2.388967    -0.516375
O    -2.197121     1.914195     0.305292
H    -2.209914     0.967613     0.074376
H    -4.669860     0.503141     2.186609
O    -4.984589    -0.430923     2.193828
H    -4.478207    -0.903491     1.524958
H     0.060734    -0.332447     0.958615
O    -0.136769    -0.090172     0.033177
H     0.201361     0.807629    -0.081722
H    -0.152942    -3.618392     3.764821
O    -0.434546    -2.791424     4.189710
H     0.209950    -2.623831     4.893793
H    -4.898115     2.491099     1.347061
O    -4.258146     2.080993     1.961003
H    -3.414988     2.067362     1.448571
H    -3.258880     3.884440    -2.184784
O    -2.519932     3.288319    -1.955920
H    -2.159432     3.006274    -2.816729
H    -0.118259    -3.826447     0.488971
O     0.218706    -3.010317     0.911944
H    -0.570450    -2.528163     1.225706
H    -2.380436    -1.578153     2.465332
O    -2.188831    -2.038337     1.621954
H    -2.447481    -1.447627     0.895441
H     2.075419    -1.449308    -1.118080
O     2.306352    -1.706675    -0.201713
H     1.517946    -2.139234     0.178207
H    -1.401452     1.790732     1.928868
O    -1.494345     1.388495     2.802717
H    -1.480433     2.096712     3.471648
H     0.215173    -2.711409    -1.577533
O    -0.541926    -2.101318    -1.629449
H    -0.365396    -1.378527    -0.990738
H    -3.431294    -2.950472    -0.405566
O    -2.711912    -3.438028    -0.827928
H    -2.003171    -2.804179    -1.041466
H     2.764815     0.100482     2.946846
O     2.862641    -0.087522     3.907580
H     2.951467     0.802840     4.318098
H    -3.548852     6.355828    -0.501856
O    -3.311108     7.023604    -1.197066
H    -3.172447     7.866161    -0.721367
H     3.895255     0.568721     1.203780
O     2.944865     0.384199     1.316992
H     2.710650    -0.365596     0.732936
H    -5.784546     0.818515    -1.600091
O    -4.875238     1.147606    -1.470136
H    -4.989417     1.972355    -0.953502
H    -1.232568     5.361904     2.249119
O    -1.856590     4.614552     2.128533
H    -1.932426     4.189227     2.987917
H     3.482139     2.750994     0.455771
O     3.235354     2.713661    -0.483902
H     3.570876     1.874302    -0.839457
H     1.504212    -4.697498    -2.268535
O     1.565640    -3.923399    -1.690779
H     2.359684    -3.458164    -2.037751
H    -0.921038    -0.090555    -2.541695
O    -0.288507     0.565908    -2.860918
H    -0.030570     1.144229    -2.120030
H     1.709010    -4.698201    -0.196926
O     1.816550    -5.339357     0.542046
H     1.355941    -6.150076     0.240453
H    -1.216773    -3.269883    -2.893098
O    -1.040365    -3.948652    -3.557791
H    -0.912322    -4.798155    -3.093872
H    -2.801198     3.251359     4.728314
O    -1.819963     3.257130     4.697936
H    -1.525754     2.847506     5.530205
H     0.938714     4.994846     4.116393
O    -0.008296     5.223970     4.171301
H    -0.477405     4.416624     4.421326
H    -1.720459    -4.671406    -0.393936
O    -0.954178    -5.211639    -0.111135
H    -1.300591    -5.903149     0.462279
H    -3.932896     5.819336    -2.561106
O    -4.281143     4.986140    -2.895642
H    -4.125267     4.957161    -3.863953
H    -2.426624    -3.726054     1.918295
O    -2.443185    -4.632469     2.288670
H    -1.502963    -4.868958     2.429137
H    -4.686504    -2.993089    -2.915325
O    -3.832936    -3.220960    -3.321878
H    -3.500386    -4.016586    -2.861131
H     0.326178     1.330883     4.632264
O     0.827483     2.096486     4.303473
H     0.875307     2.748943     5.016038
H    -4.642168    -5.191143    -1.600893
O    -5.345669    -4.842944    -1.025974
H    -5.132884    -5.202402    -0.143748
H     2.346549    -6.469133    -4.067295
O     2.007379    -6.146442    -3.212294
H     2.442399    -6.723164    -2.551921
H     0.478387    -3.371705    -4.017099
O     1.280613    -2.999804    -4.436825
H     0.961304    -2.624173    -5.283585
H     1.961284    -1.784067     2.982265
O     2.119221    -2.713135     2.759340
H     1.434821    -2.924634     2.090194
H    -3.008912    -1.815997    -3.216644
O    -2.589419    -0.928664    -3.145526
H    -3.246227    -0.283087    -3.462474
H    -3.209317     4.941895     1.113593
O    -3.991155     5.316324     0.660239
H    -4.409380     5.868464     1.368418
H     0.862966     2.221651     2.614144
O     0.965117     2.223708     1.643135
H     1.693899     1.603348     1.475806
H     0.172275     5.643739    -0.715536
O     0.692738     6.310221    -1.219468
H     0.832068     7.107036    -0.658809
H     0.317989     7.002828     2.642153
O    -0.043995     6.625362     1.823406
H     0.622582     5.959071     1.556981
H    -2.488823     0.170054     3.347337
O    -2.709296    -0.647097     3.847569
H    -1.949232    -0.688829     4.469695
H    -0.906554     0.496706     6.037216
O    -0.630432    -0.015277     5.258756
H     0.083921    -0.619852     5.541895
H     0.717125    -5.022703     1.959019
O     0.173860    -5.138477     2.761942
H     0.320823    -6.060269     3.028869
H    -2.100939    -8.114797     0.403912
O    -1.780915    -7.630552     1.192375
H    -2.568639    -7.324637     1.649552
H    -0.398367     6.858743    -2.276307
O    -1.145239     7.280114    -2.773685
H    -1.935661     7.147693    -2.212181
H    -1.130504     4.284251     0.606546
O    -0.756349     4.353015    -0.288312
H    -1.460751     4.112114    -0.923705
H    -4.425616     2.695763     3.526315
O    -4.427135     2.860402     4.492224
H    -4.507597     1.973885     4.895098
H     2.024472    -3.621084     4.233412
O     1.960504    -4.098639     5.083594
H     2.465729    -3.564863     5.718226
H     4.691846    -3.205699     0.834284
O     4.532463    -3.124346    -0.131967
H     3.672331    -2.649045    -0.213522
H    -2.722354    -0.765592    -1.351771
O    -3.051625    -0.501455    -0.476217
H    -3.853518     0.022913    -0.681223
H    -1.611927    -0.755158    -4.629932
O    -1.104621    -0.532749    -5.431830
H    -0.396678     0.063755    -5.142004
H     1.800593    -1.707814    -3.376785
O     1.889929    -0.964433    -2.749104
H     1.111093    -0.388836    -2.877777
H     3.664457    -3.146472     2.544749
O     4.624206    -3.372227     2.471347
H     4.681550    -4.332953     2.592550
H     3.434949    -6.149617     3.098749
O     3.791225    -5.942280     2.200206
H     3.053447    -5.595395     1.658539
H    -3.346033     1.609412    -4.164408
O    -4.190137     1.135612    -3.977856
H    -4.409217     1.274551    -3.020620
H    -5.098417     4.114908     0.091878
O    -5.534502     3.248225    -0.015008
H    -6.464574     3.365938    -0.299118
H     6.735408    -1.174331    -1.352390
O     5.961777    -1.030060    -0.801069
H     5.545080    -1.900212    -0.609230
H     4.601861    -3.160183    -2.475358
O     3.734086    -2.988619    -2.891465
H     3.740129    -3.602895    -3.651283
H     4.429773    -2.334711     5.621891
O     4.086506    -2.806162     6.411308
H     4.424633    -3.709580     6.325059
H    -0.780956     6.287177     5.114800
O    -1.382453     6.859108     5.653557
H    -1.398531     7.739772     5.217103
H     4.697050    -0.133396    -1.452674
O     3.928437     0.408489    -1.713122
H     3.238190    -0.192078    -2.047838
H    -0.753323     4.527570    -4.002621
O    -1.537202     5.069882    -4.208205
H    -1.388263     5.934492    -3.780783
H     0.650665     3.203159    -2.629652
O     0.657910     3.585580    -3.535763
H     0.708261     2.825881    -4.125907
H    -5.375979    -5.237046     1.763528
O    -4.677260    -5.827486     1.405275
H    -3.838155    -5.411222     1.679779
H     7.887256    -1.663708    -4.025422
O     7.627386    -1.356543    -3.124258
H     7.138501    -0.513085    -3.276317
H     3.717642    -5.048941    -5.307880
O     4.478457    -4.676322    -4.823626
H     4.864216    -5.389638    -4.281703
H    -3.794307    -0.039210     4.938706
O    -4.397339     0.419877     5.573002
H    -5.055580    -0.242407     5.860355
H     3.476976    -5.948582    -0.542789
O     4.349282    -5.697126    -0.858385
H     4.422984    -4.735548    -0.708630
H     5.002893    -0.316175    -4.147717
O     4.469768    -1.026392    -4.542623
H     4.144530    -1.615167    -3.828790
H    -1.175736     1.574297    -3.920505
O    -1.827185     2.195932    -4.302888
H    -1.469635     2.533236    -5.147006
H     4.900677    -6.313767    -2.339122
O     5.235499    -6.632464    -3.206322
H     6.054462    -7.112501    -3.021487
H     8.753488    -5.070004    -2.929789
O     8.062441    -5.492866    -2.375028
H     8.099836    -6.449480    -2.482726
H     2.320754     4.704995     0.491584
O     1.740272     4.680828     1.261715
H     1.385866     3.758791     1.333309
H    -4.418294    -2.690086     4.217930
O    -5.312846    -2.351197     4.016715
H    -5.177071    -1.566655     3.445734
H    -5.843512    -3.237211     1.298676
O    -6.305776    -3.799347     1.963053
H    -6.119542    -3.368743     2.816516
H     1.659963     3.412912     6.895440
O     1.032837     3.930386     6.367472
H     0.253589     4.077656     6.942449
H     4.997903    -2.196474     3.617534
O     5.015587    -1.481972     4.285792
H     4.202401    -0.927186     4.131695
H     2.394839    -5.618058     4.815943
O     2.777641    -6.499161     4.550797
H     2.034466    -7.081802     4.372573
H     2.273451    -4.487653    -6.806622
O     2.104573    -4.981296    -5.994119
H     1.837307    -4.294801    -5.334863
H     6.447047    -4.101899    -0.511948
O     7.200799    -4.505542    -0.050103
H     7.710155    -4.922731    -0.772669
H    -1.714886     4.464055     7.748034
O    -0.826742     4.556378     8.163462
H    -0.592790     5.501647     8.166854
H    -5.131010     5.695419    -5.560795
O    -4.521077     4.933883    -5.584315
H    -3.763926     5.153485    -6.148460
H     3.294547    -2.486587    -8.439843
O     3.207158    -3.023939    -7.641638
H     4.083243    -3.000181    -7.211650
H    -0.685368     8.820627    -2.217927
O    -0.565561     9.646089    -1.693443
H     0.197164     9.470605    -1.117654
H     2.057927    -0.956920     5.217182
O     1.484544    -1.487257     5.799870
H     1.576740    -1.148067     6.699705
H     5.213857    -1.994962    -5.690509
O     5.562738    -2.757152    -6.216644
H     5.290423    -3.550929    -5.704130
H     5.698883    -5.246602     4.669741
O     5.175361    -5.167741     5.496197
H     4.455917    -5.801487     5.406387
H    -3.990006     1.080923     7.015431
O    -3.801614     1.560336     7.858127
H    -4.681071     1.933061     8.122535
H    -1.880543     9.595830    -0.682050
O    -2.740909     9.464618    -0.208459
H    -3.353558     10.093101    -0.594097
H    -5.961690     4.673139    -2.910328
O    -6.869678     4.553634    -3.256068
H    -6.776575     3.855519    -3.937264
H     0.110232    -7.075702    -1.177435
O     0.574803    -7.514704    -0.431788
H    -0.104590    -7.715454     0.215040
H    -7.649661     3.764545    -1.952833
O    -7.909695     3.172703    -1.216139
H    -7.764566     2.266282    -1.561046
H     3.962460    -0.942010     6.994805
O     3.967955     0.022170     6.989558
H     4.780941     0.316553     6.562390
H     2.239800     5.790664    -1.134263
O     3.175893     5.499927    -1.020156
H     3.355226     4.965034    -1.816362
H     6.560978    -5.935055     0.652754
O     6.193613    -6.675594     1.181423
H     5.288155    -6.402168     1.409029
H    -3.941183     4.581681     7.796771
O    -3.326105     4.172081     7.148127
H    -3.514122     3.219657     7.232253
H     5.778802    -7.949897     0.105718
O     5.493591    -8.634002    -0.536229
H     4.663983    -8.308403    -0.929466
H    -0.575508     1.978141     7.714666
O    -1.208257     1.922109     6.977014
H    -2.074747     1.766565     7.372028
H    -6.388981    -0.163058     1.062101
O    -6.707545    -0.240987     0.148187
H    -7.625286    -0.515405     0.162724
H    -5.367496    -3.092845    -0.604656
O    -5.118237    -2.393185     0.025232
H    -5.690201    -1.621046    -0.159153
H     4.297927     5.568707     0.366841
O     4.630166     5.665139     1.273120
H     3.933680     6.170808     1.727352
H    -9.041278    -1.773161    -2.266639
O    -8.494938    -1.574873    -1.478702
H    -8.620955    -2.315834    -0.845732
H    -5.531819     3.471147    -5.505800
O    -6.047732     2.756927    -5.095463
H    -5.380049     2.170596    -4.684694
H     3.184951    -0.864768    -5.648258
O     2.329918    -0.984206    -6.115877
H     2.418348    -1.830208    -6.594179
H     8.120654    -1.310961    -6.018914
O     8.130592    -2.177531    -5.567429
H     7.275858    -2.578422    -5.821449
H     7.620944     1.029836    -6.286479
O     7.434777     0.183473    -6.704906
H     6.453631     0.131015    -6.742624
H    -7.856870    -3.736915     0.906531
O    -8.534497    -3.627435     0.221798
H    -8.433795    -4.383179    -0.384129
H    -2.437238     8.704752     1.350447
O    -2.284645     8.113097     2.100863
H    -1.513568     7.562504     1.874561
H    -4.469218     6.385518     3.537927
O    -4.640216     6.816807     2.684556
H    -3.877948     7.404998     2.547915
H     3.391198     3.458397    -3.544354
O     3.234982     4.426661    -3.445124
H     2.270123     4.489220    -3.554062
H    -6.112267    -1.619253    -3.450872
O    -6.194354    -2.203024    -2.670178
H    -6.980073    -1.901235    -2.160994
H     6.454222     1.020428     4.761896
O     6.057273     1.554057     5.467105
H     6.243988     2.474860     5.182500
H     1.359084     1.741944    -5.802500
O     1.165249     1.141265    -5.051889
H     1.531419     0.280742    -5.326289
H    -2.496168     2.829007     10.539990
O    -2.292451     1.935258     10.225878
H    -2.899325     1.766642     9.493505
H     7.620065    -0.514140     3.098078
O     6.868160     0.058440     3.269097
H     6.177239    -0.546078     3.644420
H    -5.642000    -8.082838    -0.747236
O    -4.907602    -8.153272    -0.100493
H    -4.914315    -7.339203     0.426426
H    -5.176559    -0.122354    -4.714061
O    -5.791416    -0.834412    -4.958573
H    -6.630571    -0.393974    -5.155139
H     1.894449    -0.167244    -7.505565
O     1.692568     0.309124    -8.346875
H     2.270977    -0.090820    -9.001714
H     4.881954    -1.343769    -9.298002
O     3.956545    -1.115561    -9.579975
H     3.937744    -1.228240    -10.529676
H     7.560705    -2.593959     4.202099
O     7.708441    -2.623687     3.242513
H     7.217975    -3.414569     2.965544
H     6.728352    -5.911335     2.666254
O     6.787336    -5.239891     3.371186
H     7.662882    -5.325052     3.789793
H    -1.851850     8.904854     3.554049
O    -1.608492     9.203050     4.456123
H    -2.459481     9.335262     4.906886
H    -7.393227     1.561404    -5.242064
O    -7.966116     0.814281    -5.001672
H    -8.869142     1.210765    -4.924779
H     6.934033    -1.033508    -8.393958
O     6.354180    -1.754454    -8.662475
H     6.126700    -2.209922    -7.833466
H    -1.689939     6.260140    -6.979653
O    -2.086136     5.432405    -6.711139
H    -1.838336     5.296538    -5.748109
H    -0.011725     3.240838     9.062922
O     0.174170     2.313229     9.292178
H    -0.619524     2.045881     9.804859
H     6.761729    -2.764181    -2.704776
O     6.232764    -3.511821    -2.368923
H     6.703820    -4.319937    -2.619464
H    -4.068656    -3.072249    -4.958074
O    -4.221838    -2.954313    -5.922402
H    -4.771495    -2.162665    -5.974649
H     1.960801     2.124594     8.489489
O     2.621600     2.240329     7.796862
H     3.047490     1.372091     7.680429
H    -6.897550    -5.228957    -1.425895
O    -7.812148    -5.499405    -1.673999
H    -7.945836    -5.092278    -2.554827
H    -3.852403     5.192930     5.731846
O    -3.824978     5.968650     5.150464
H    -2.890711     6.262925     5.240516
H    -7.888079     0.061234    -1.966773
O    -7.399913     0.788791    -2.375289
H    -7.626820     0.782580    -3.328948
H     5.831345     0.125169     0.428431
O     5.606634     0.842399     1.053310
H     6.116644     0.643728     1.865631
H    -6.244768     3.232785     7.409352
O    -6.116992     2.716476     8.238636
H    -6.710884     1.950140     8.148991
H     2.295277    -8.080623    -0.878721
O     2.972887    -8.061981    -1.574230
H     2.750730    -8.773192    -2.191664
H    -2.732065    -3.950034    -6.215049
O    -1.977096    -4.515500    -5.985746
H    -1.702719    -4.228604    -5.086499
H    -5.665108     3.699195     5.331502
O    -6.311904     4.095765     5.951621
H    -6.161170     5.041497     5.924965
H    -1.001195    -7.116106    -3.197306
O    -0.531223    -6.448026    -2.664745
H     0.376593    -6.374174    -3.044058
H     4.427208     1.980986     5.154486
O     3.485122     2.219367     5.035229
H     3.100480     2.227415     5.917224
H     4.085085     4.613918     6.342525
O     4.162799     5.347999     5.728631
H     3.597393     5.109191     4.955732
H     2.744952     3.584298     3.956990
O     2.562907     4.524558     3.796079
H     2.446540     4.628212     2.829783
H     9.389140     0.224088    -1.049779
O     8.581903     0.381928    -0.556569
H     8.407799    -0.440171    -0.068258
H    -2.163556     5.138720     10.504451
O    -2.855443     4.553215     10.858184
H    -3.304391     5.115336     11.508090
H     7.975404    -3.008293     0.328147
O     8.393869    -2.161929     0.588649
H     8.327075    -2.162893     1.550922
H     5.351433     3.640857     3.561911
O     6.006324     3.904697     4.230042
H     5.591505     4.618773     4.735467
H    -4.281418     4.707018     9.783324
O    -4.972127     4.994197     9.145630
H    -5.573501     4.234210     9.061890
H    -7.002709    -3.493523    -3.505253
O    -7.621179    -4.104218    -3.957930
H    -7.098206    -4.540971    -4.662044
H    -0.749867     7.227858     11.012327
O    -1.409751     6.993996     10.352513
H    -0.977869     7.198034     9.497991
H     2.584996     1.508683    -4.084734
O     3.462052     1.862579    -3.842874
H     3.782925     1.343805    -3.075080
H    -6.984381    -0.293922     7.220877
O    -7.493403     0.484069     7.502025
H    -8.120748     0.664083     6.800803
H    -2.721089    -9.893032    -0.881767
O    -2.660300    -8.950319    -1.036165
H    -3.567437    -8.587667    -0.794423
H    -10.076433     3.061047    -4.883198
O    -10.191196     2.141622    -4.608005
H    -10.408496     2.219327    -3.658127
H    -2.070467    -3.073756     4.602864
O    -2.944641    -3.515944     4.668638
H    -2.935893    -4.129874     3.909223
H    -0.165312    -8.014969     2.447698
O     0.659976    -7.804525     2.897577
H     1.379765    -8.095373     2.310081
H     6.699709    -2.412824     6.395581
O     7.151211    -3.118578     5.927923
H     6.523318    -3.854940     5.885065
H    -5.280649    -2.073331     6.935049
O    -5.956811    -1.572980     6.453120
H    -5.939401    -1.945525     5.542080
H     0.831236     3.058614    -7.087238
O     1.749789     2.730583    -7.144114
H     1.738730     1.986570    -7.774205
H    -4.039167     8.716246     6.708949
O    -3.998804     8.700238     5.752876
H    -4.112489     7.769876     5.489902
H    -2.088583     10.307478    -2.671452
O    -2.990770     10.488300    -2.972079
H    -2.920912     11.126179    -3.681678
H     9.411481    -4.077791     4.040554
O     9.132527    -4.760263     4.658708
H     8.701245    -4.293250     5.385262
H    -0.717677    -5.982436    -5.867428
O    -0.013226    -6.549042    -5.536175
H     0.821409    -6.084331    -5.750316
H     1.798727     8.258859     0.723011
O     1.494801     8.585037    -0.152706
H     2.309623     8.628058    -0.682669
H     3.493083     2.959930    -6.632480
O     4.321047     2.669797    -6.223884
H     4.075570     2.390058    -5.316907
H     3.710920     7.124239    -1.175512
O     3.914188     8.061831    -1.383187
H     4.284732     8.011884    -2.276354
H     4.398924     0.032285    -7.897897
O     4.774602     0.174678    -7.027223
H     4.590260     1.104740    -6.778662
H     6.021036     1.933749    -0.448310
O     6.586495     2.133067    -1.208401
H     7.412131     1.654335    -1.016569
H     6.702566    -8.422361    -1.639206
O     7.338616    -8.205797    -2.373987
H     7.707783    -9.037422    -2.666276
H    -5.285513    -5.787792    -5.438093
O    -5.904068    -5.115478    -5.749473
H    -5.354592    -4.344656    -5.981512
H     0.666153     7.134600     7.645305
O    -0.245884     7.175472     7.975001
H    -0.781425     7.158232     7.140703
H    -8.890942    -2.849927    -4.119568
O    -9.413323    -2.043514    -3.947941
H    -9.128610    -1.374652    -4.574448
H    -2.397410    -5.999097    -2.171962
O    -3.275902    -5.713250    -2.439970
H    -3.461237    -6.083508    -3.327985
H    -2.970430    -5.893323    -5.438041
O    -3.569275    -6.507182    -4.969823
H    -3.085547    -7.327260    -4.807417
H    -1.397870     3.746234    -6.954170
O    -0.855939     2.990477    -6.686710
H    -1.089942     2.207779    -7.241420
H    -0.201268     0.447378    -8.204938
O    -1.098114     0.678895    -7.920970
H    -1.272923     0.150003    -7.126462
H    -10.435836     4.025078    -2.713952
O    -10.501795     3.243303    -2.149913
H    -9.672848     3.216160    -1.640523
H     4.562794     4.064940     1.758126
O     4.355960     3.142182     2.031591
H     5.073239     2.569182     1.747832
H     6.481513     1.422067    -4.195249
O     6.179152     0.793314    -3.505181
H     6.208083     1.283936    -2.658499
H     9.634608    -2.213217    -0.922637
O     9.911628    -1.992681    -1.820818
H     9.110800    -1.653673    -2.263150
H     9.976254    -3.294589    -3.097684
O     9.711542    -3.943398    -3.776630
H     9.317405    -3.432697    -4.494454
H    -7.679538    -8.601685    -1.715570
O    -6.943282    -8.004445    -1.839508
H    -7.323535    -7.092611    -1.824699
H     4.143794     6.096720    -3.772255
O     4.802728     6.799311    -3.681796
H     5.640149     6.346843    -3.546817
H     0.119394    -8.156969    -5.253816
O     0.145553    -9.140532    -5.127571
H     0.297971    -9.498948    -6.002011
H    -2.312486    -8.680741    -2.759798
O    -2.078424    -8.410881    -3.667514
H    -1.429952    -9.025625    -4.029332
H     2.210372    -10.807497    -3.547028
O     2.161639    -9.853239    -3.517244
H     1.376063    -9.581540    -4.042716
H     6.826863     3.357717    -4.538922
O     6.887495     2.683606    -5.243458
H     6.094303     2.817670    -5.784340
H    -3.569068    -3.792036     7.704664
O    -3.685049    -3.001933     7.178386
H    -3.431634    -3.235476     6.259264
H    -0.626928    -3.341970    -6.735667
O     0.001346    -2.608796    -6.738250
H    -0.482863    -1.836601    -6.392777
H     0.626820     0.393315     8.765543
O     0.635276    -0.315565     8.118375
H    -0.286123    -0.606602     8.030437
H    -5.854324     7.360962    -4.206715
O    -6.354850     6.743952    -4.771839
H    -6.640661     6.008910    -4.185226
H    -4.304547     9.094575    -3.207001
O    -4.838344     8.296546    -3.105433
H    -4.429022     7.813697    -2.369276
H    -9.727404     5.782086    -4.614310
O    -10.258713     4.975096    -4.455658
H    -11.139418     5.175128    -4.774744
H     2.742082     6.468505     6.190434
O     1.781306     6.564052     6.284152
H     1.439115     5.650312     6.180740
H     4.775576     8.542666     0.147534
O     5.091069     8.538794     1.069155
H     5.501467     7.675390     1.195172
H     4.161723    -7.406985    -4.372157
O     3.404904    -7.690511    -4.916894
H     3.126544    -8.534459    -4.546054
H     0.346264     8.620414     4.294671
O     1.023835     7.977307     4.062702
H     1.253661     7.480918     4.874442
H     5.222421     4.206076    -3.118885
O     6.183880     4.178776    -3.065023
H     6.393644     3.593347    -2.320528
H    -2.588243    -1.611509     7.570027
O    -2.080890    -0.816255     7.789744
H    -2.705287    -0.197757     8.178031
H    -9.049635     7.921285    -4.102090
O    -8.984156     7.340687    -4.861731
H    -8.026535     7.180205    -4.997151
H     3.547365    -8.993922     1.051267
O     2.868778    -8.365235     1.302688
H     3.340979    -7.560418     1.588121
H     3.555977     8.153462     1.888065
O     2.766226     7.587989     1.997295
H     2.319951     7.817934     2.824837
N    -4.250021     6.971367     11.413695
H    -4.830313     6.700557     10.688779
H    -3.463783     7.318817     10.967482
