603

H     0.204411     3.029519    -0.681920
O     0.727899     2.362201    -1.175347
H     1.666428     2.490691    -0.900114
H    -0.074277    -1.305717     3.150251
O     0.317497    -0.605423     2.605706
H    -0.160972     0.207728     2.838316
H    -2.396083     2.406697    -0.542691
O    -2.185326     1.937920     0.281953
H    -2.200685     0.989554     0.058444
H    -4.661204     0.544498     2.174707
O    -4.978013    -0.388722     2.188013
H    -4.472787    -0.866965     1.522318
H     0.067012    -0.309153     0.950453
O    -0.129870    -0.072501     0.023353
H     0.210163     0.823784    -0.097105
H    -0.152343    -3.575280     3.779191
O    -0.431903    -2.744777     4.198491
H     0.213171    -2.573730     4.901140
H    -4.885955     2.527065     1.320471
O    -4.246282     2.119775     1.936027
H    -3.402948     2.101459     1.424283
H    -3.243199     3.895765    -2.221321
O    -2.509245     3.296083    -1.988884
H    -2.148589     3.006521    -2.847286
H    -0.119381    -3.805736     0.504904
O     0.219562    -2.987341     0.921945
H    -0.568479    -2.501465     1.232857
H    -2.375798    -1.539082     2.466552
O    -2.185371    -2.005434     1.626177
H    -2.443387    -1.419292     0.895847
H     2.078643    -1.444523    -1.119367
O     2.309453    -1.695987    -0.201375
H     1.520311    -2.124285     0.181900
H    -1.389402     1.824349     1.907133
O    -1.483135     1.427329     2.783132
H    -1.469069     2.139773     3.448020
H     0.215276    -2.705489    -1.569596
O    -0.540125    -2.093618    -1.625667
H    -0.361773    -1.367455    -0.991339
H    -3.431306    -2.928963    -0.394672
O    -2.712463    -3.420678    -0.813152
H    -2.002798    -2.789697    -1.031663
H     2.772844     0.131417     2.934707
O     2.870974    -0.050286     3.896625
H     2.961474     0.842832     4.300846
H    -3.528569     6.378543    -0.551466
O    -3.288957     7.041494    -1.252181
H    -3.146163     7.886656    -0.781693
H     3.903825     0.585504     1.187954
O     2.953094     0.403804     1.302719
H     2.717042    -0.349511     0.723963
H    -5.777698     0.837022    -1.614466
O    -4.867184     1.164876    -1.488235
H    -4.979026     1.992032    -0.975099
H    -1.213908     5.396768     2.203162
O    -1.838941     4.649829     2.085532
H    -1.917259     4.230898     2.947960
H     3.495086     2.763657     0.424955
O     3.247665     2.720221    -0.514363
H     3.581421     1.877715    -0.864111
H     1.499989    -4.699123    -2.247161
O     1.563394    -3.921150    -1.674823
H     2.358334    -3.460156    -2.025331
H    -0.915158    -0.089338    -2.551125
O    -0.282595     0.564623    -2.875358
H    -0.022137     1.146467    -2.138115
H     1.705741    -4.686128    -0.175680
O     1.812326    -5.322451     0.567580
H     1.349707    -6.134194     0.271760
H    -1.218461    -3.270284    -2.880426
O    -1.042769    -3.953679    -3.540462
H    -0.916983    -4.800391    -3.070856
H    -2.784256     3.309575     4.697184
O    -1.802986     3.307846     4.663884
H    -1.510621     2.906703     5.500655
H     0.957840     5.037112     4.071329
O     0.011467     5.268650     4.121443
H    -0.460058     4.465474     4.380280
H    -1.723579    -4.653362    -0.371556
O    -0.958328    -5.193123    -0.085107
H    -1.306183    -5.880076     0.492903
H    -3.863933     5.843101    -2.606789
O    -4.236177     5.022580    -2.947165
H    -4.062635     4.980839    -3.910640
H    -2.426958    -3.690505     1.934297
O    -2.445167    -4.594199     2.311166
H    -1.505426    -4.831759     2.452752
H    -4.687469    -2.985288    -2.904104
O    -3.833538    -3.217375    -3.307735
H    -3.503861    -4.011373    -2.842187
H     0.337215     1.379378     4.612259
O     0.842226     2.140045     4.278106
H     0.890730     2.799029     4.984981
H    -4.647208    -5.175016    -1.573857
O    -5.349121    -4.820934    -1.000672
H    -5.137084    -5.175380    -0.116328
H     2.338025    -6.484822    -4.034165
O     2.000155    -6.155432    -3.181206
H     2.434032    -6.728727    -2.517136
H     0.476638    -3.383262    -4.004362
O     1.279308    -3.015506    -4.426981
H     0.960159    -2.645615    -5.276362
H     1.965310    -1.750865     2.983300
O     2.121298    -2.681772     2.766731
H     1.436174    -2.896410     2.099296
H    -3.007459    -1.814448    -3.213403
O    -2.587177    -0.926441    -3.149051
H    -3.243380    -0.283777    -3.470391
H    -3.190823     4.974125     1.069302
O    -3.971862     5.347827     0.613431
H    -4.387931     5.904871     1.320181
H     0.875357     2.254805     2.588140
O     0.977304     2.249791     1.616977
H     1.704796     1.626766     1.454055
H     0.191276     5.655407    -0.764577
O     0.711364     6.317862    -1.274274
H     0.854616     7.117413    -0.718179
H     0.339749     7.036932     2.583887
O    -0.021488     6.656158     1.766169
H     0.642926     5.985301     1.506207
H    -2.480474     0.215239     3.336390
O    -2.702186    -0.598489     3.841671
H    -1.942201    -0.637131     4.464135
H    -0.897242     0.556634     6.022042
O    -0.621951     0.037333     5.247959
H     0.091450    -0.565841     5.535763
H     0.714060    -4.993715     1.982735
O     0.171168    -5.102739     2.786849
H     0.315950    -6.023116     3.059802
H    -2.111240    -8.090354     0.450121
O    -1.789848    -7.601411     1.235173
H    -2.576831    -7.290476     1.690258
H    -0.375788     6.861466    -2.333299
O    -1.123643     7.279502    -2.833269
H    -1.911362     7.155360    -2.266549
H    -1.113285     4.308079     0.567702
O    -0.740826     4.370002    -0.328606
H    -1.446152     4.124739    -0.960704
H    -4.411490     2.746064     3.498628
O    -4.411067     2.917424     4.462916
H    -4.494143     2.034634     4.872826
H     2.025082    -3.579406     4.246959
O     1.960694    -4.050930     5.100498
H     2.467016    -3.513628     5.731199
H     4.692122    -3.192985     0.844115
O     4.532605    -3.117850    -0.122604
H     3.673410    -2.641396    -0.207162
H    -2.717737    -0.752138    -1.355985
O    -3.045675    -0.480506    -0.482300
H    -3.847354     0.042750    -0.690234
H    -1.608641    -0.766659    -4.634830
O    -1.101396    -0.549719    -5.438145
H    -0.391514     0.046320    -5.152226
H     1.802305    -1.717833    -3.376170
O     1.893460    -0.970109    -2.753820
H     1.115820    -0.393956    -2.886155
H     3.665509    -3.119802     2.554486
O     4.624753    -3.348168     2.482407
H     4.679910    -4.308221     2.609949
H     3.429801    -6.118628     3.129203
O     3.786248    -5.918056     2.229225
H     3.048978    -5.573539     1.685320
H    -3.342126     1.605622    -4.185942
O    -4.192930     1.144423    -3.998971
H    -4.403251     1.280751    -3.039416
H    -5.083227     4.143876     0.057855
O    -5.521808     3.278305    -0.048841
H    -6.452039     3.398589    -0.331117
H     6.739186    -1.181215    -1.357374
O     5.966072    -1.031387    -0.806800
H     5.547575    -1.899292    -0.608739
H     4.601018    -3.169961    -2.465843
O     3.733474    -2.999270    -2.882796
H     3.737831    -3.618843    -3.638339
H     4.433870    -2.288702     5.625610
O     4.090385    -2.753748     6.418775
H     4.425998    -3.658651     6.338176
H    -0.759290     6.339838     5.067649
O    -1.357001     6.915748     5.604542
H    -1.369968     7.792594     5.162834
H     4.703014    -0.136463    -1.464019
O     3.935488     0.405285    -1.727998
H     3.243823    -0.196139    -2.058195
H    -0.739969     4.517142    -4.044201
O    -1.521324     5.062503    -4.252696
H    -1.366198     5.929119    -3.831183
H     0.662961     3.200832    -2.662403
O     0.668657     3.577106    -3.571291
H     0.719394     2.813178    -4.155985
H    -5.379566    -5.196326     1.790986
O    -4.682113    -5.790983     1.437170
H    -3.842152    -5.374310     1.708211
H     7.889005    -1.691297    -4.027339
O     7.630165    -1.377359    -3.128187
H     7.143028    -0.533953    -3.285863
H     3.711621    -5.075978    -5.284967
O     4.473486    -4.701804    -4.803516
H     4.857843    -5.412326    -4.256965
H    -3.786237     0.018972     4.929045
O    -4.387816     0.483483     5.560517
H    -5.047841    -0.174817     5.852520
H     3.470834    -5.942647    -0.513825
O     4.343712    -5.695265    -0.831073
H     4.419416    -4.732818    -0.688168
H     5.007526    -0.338461    -4.157709
O     4.472490    -1.050003    -4.547587
H     4.146412    -1.633378    -3.829691
H    -1.168552     1.566855    -3.940739
O    -1.818768     2.187401    -4.327351
H    -1.459904     2.516891    -5.174146
H     4.893156    -6.323179    -2.307885
O     5.227060    -6.648419    -3.172993
H     6.044979    -7.129062    -2.985145
H     8.748390    -5.091828    -2.908587
O     8.056704    -5.509342    -2.350583
H     8.091931    -6.466752    -2.451779
H     2.338396     4.719454     0.448005
O     1.757272     4.702435     1.217765
H     1.401359     3.781588     1.296876
H    -4.415321    -2.634585     4.227450
O    -5.309246    -2.295376     4.024211
H    -5.172258    -1.514919     3.447939
H    -5.843231    -3.198700     1.312477
O    -6.305687    -3.755495     1.981082
H    -6.118481    -3.319226     2.831424
H     1.681040     3.473759     6.859072
O     1.058274     3.988626     6.324292
H     0.274715     4.141552     6.895190
H     5.001384    -2.165487     3.620296
O     5.020884    -1.446505     4.283713
H     4.208872    -0.890946     4.125912
H     2.391520    -5.573114     4.843049
O     2.772357    -6.456865     4.584074
H     2.027855    -7.039010     4.409753
H     2.267924    -4.522091    -6.787004
O     2.098669    -5.009644    -5.970921
H     1.832910    -4.318124    -5.316391
H     6.444893    -4.102239    -0.496550
O     7.198001    -4.504254    -0.032243
H     7.706142    -4.927510    -0.752149
H    -1.732257     4.494263     7.693613
O    -0.833734     4.593180     8.079572
H    -0.653383     5.552412     8.103754
H    -4.966269     5.744339    -5.615078
O    -4.417117     4.934494    -5.654710
H    -3.626291     5.131003    -6.191948
H     3.292725    -2.534372    -8.434353
O     3.204450    -3.065763    -7.632269
H     4.080835    -3.041249    -7.202984
H    -0.658145     8.824256    -2.288776
O    -0.538318     9.652642    -1.769473
H     0.224231     9.479880    -1.192303
H     2.064684    -0.908548     5.212128
O     1.491360    -1.434003     5.799359
H     1.584511    -1.088202     6.696456
H     5.214254    -2.028147    -5.689078
O     5.561398    -2.794642    -6.210024
H     5.287478    -3.584341    -5.692071
H     5.696209    -5.209758     4.693243
O     5.173207    -5.124186     5.519391
H     4.452260    -5.756845     5.433961
H    -3.978873     1.149085     7.000302
O    -3.787710     1.626129     7.843631
H    -4.664334     2.011198     8.103519
H    -1.851826     9.612228    -0.757731
O    -2.713580     9.484921    -0.285356
H    -3.323368     10.116062    -0.670844
H    -5.826418     4.693221    -2.962937
O    -6.735863     4.545595    -3.310579
H    -6.565912     3.826125    -3.963846
H     0.101612    -7.066911    -1.139332
O     0.565503    -7.501577    -0.390676
H    -0.114220    -7.696575     0.257575
H    -7.540402     3.756847    -1.955947
O    -7.910459     3.240552    -1.207988
H    -7.767416     2.309035    -1.498842
H     3.969935    -0.885939     6.988722
O     3.978008     0.078227     6.978540
H     4.790688     0.368036     6.547602
H     2.258699     5.794780    -1.185557
O     3.194030     5.503000    -1.069980
H     3.372039     4.962083    -1.862384
H     6.555377    -5.927548     0.680674
O     6.186695    -6.663549     1.214735
H     5.281814    -6.386746     1.440538
H    -3.875953     4.733032     7.771120
O    -3.308722     4.270266     7.112540
H    -3.501177     3.326729     7.224067
H     5.768624    -7.944387     0.147766
O     5.481724    -8.632276    -0.489327
H     4.652628    -8.307695    -0.884504
H    -0.563263     2.047131     7.688852
O    -1.195893     1.982032     6.953279
H    -2.064528     1.839839     7.349322
H    -6.382538    -0.125772     1.055329
O    -6.700970    -0.206503     0.141602
H    -7.618156    -0.483120     0.156773
H    -5.367719    -3.068142    -0.591926
O    -5.116413    -2.364292     0.032578
H    -5.686987    -1.592596    -0.157434
H     4.316871     5.578959     0.316752
O     4.649659     5.680952     1.222157
H     3.954368     6.191024     1.673351
H    -9.036899    -1.747102    -2.264424
O    -8.490970    -1.545888    -1.475773
H    -8.620082    -2.283639    -0.840308
H    -5.342213     3.413830    -5.591892
O    -5.916830     2.713825    -5.219668
H    -5.278044     2.116268    -4.761990
H     3.187699    -0.893286    -5.653829
O     2.332174    -1.013761    -6.120288
H     2.418390    -1.863307    -6.592749
H     8.122433    -1.352719    -6.023235
O     8.130639    -2.216143    -5.565745
H     7.274957    -2.616945    -5.816741
H     7.627589     0.987343    -6.306675
O     7.439462     0.138502    -6.719149
H     6.458212     0.087855    -6.756247
H    -7.857725    -3.697175     0.924249
O    -8.535288    -3.589886     0.239235
H    -8.436990    -4.349614    -0.362075
H    -2.409246     8.736495     1.281328
O    -2.260466     8.147644     2.034297
H    -1.489037     7.595138     1.814026
H    -4.449058     6.435507     3.484600
O    -4.617783     6.860340     2.627097
H    -3.854646     7.446997     2.489079
H     3.403849     3.443628    -3.579881
O     3.249268     4.412882    -3.487421
H     2.284586     4.476584    -3.596373
H    -6.109178    -1.615061    -3.450121
O    -6.192466    -2.189355    -2.662517
H    -6.979303    -1.881905    -2.158021
H     6.465249     1.055964     4.742015
O     6.070144     1.595299     5.443936
H     6.258198     2.513744     5.152341
H     1.367579     1.716224    -5.825330
O     1.172586     1.121400    -5.070376
H     1.536720     0.258108    -5.338938
H    -2.497985     2.971108     10.477180
O    -2.284939     2.063436     10.204765
H    -2.882004     1.862717     9.472169
H     7.627008    -0.492557     3.088227
O     6.876472     0.082862     3.255722
H     6.184336    -0.517551     3.635317
H    -5.652902    -8.058643    -0.699944
O    -4.918188    -8.126211    -0.053120
H    -4.923016    -7.308534     0.468183
H    -5.168611    -0.132112    -4.725013
O    -5.776027    -0.851006    -4.965904
H    -6.625294    -0.421768    -5.153968
H     1.898173    -0.205628    -7.515390
O     1.696910     0.265762    -8.359669
H     2.273773    -0.140028    -9.012281
H     4.882283    -1.400859    -9.300972
O     3.957260    -1.172449    -9.583984
H     3.937630    -1.291758    -10.532868
H     7.563591    -2.564521     4.206633
O     7.710979    -2.601154     3.247250
H     7.218628    -3.392786     2.975798
H     6.723372    -5.890349     2.693901
O     6.784188    -5.214335     3.394344
H     7.659756    -5.298656     3.813028
H    -1.826824     8.949237     3.485718
O    -1.579910     9.255341     4.383612
H    -2.429016     9.387229     4.838785
H    -7.397630     1.482763    -5.267171
O    -7.926194     0.743057    -4.932368
H    -8.871162     1.086548    -4.924620
H     6.935472    -1.088994    -8.399682
O     6.353887    -1.810444    -8.663026
H     6.125794    -2.259795    -7.830860
H    -1.667435     6.234573    -7.034336
O    -2.062677     5.408685    -6.759240
H    -1.814523     5.279819    -5.795223
H    -0.006725     3.318894     9.018432
O     0.190553     2.399475     9.274471
H    -0.608043     2.135381     9.780560
H     6.761649    -2.780275    -2.698739
O     6.231213    -3.524396    -2.357451
H     6.700329    -4.335262    -2.602711
H    -4.069478    -3.081541    -4.946413
O    -4.221176    -2.970337    -5.911577
H    -4.771112    -2.178796    -5.968621
H     1.973705     2.192131     8.463092
O     2.637792     2.304261     7.773192
H     3.060773     1.434192     7.659191
H    -6.902696    -5.206652    -1.397384
O    -7.817597    -5.477510    -1.643236
H    -7.950823    -5.075857    -2.526849
H    -3.833322     5.259796     5.686736
O    -3.800248     6.027431     5.094807
H    -2.866516     6.322312     5.189957
H    -7.831248    -0.016016    -1.886910
O    -7.400399     0.766163    -2.269544
H    -7.583160     0.741781    -3.238940
H     5.838758     0.132366     0.414847
O     5.615895     0.854400     1.034841
H     6.125725     0.660252     1.848337
H    -6.221797     3.315184     7.386014
O    -6.094067     2.798036     8.215300
H    -6.693755     2.036177     8.127518
H     2.284208    -8.074313    -0.834663
O     2.961896    -8.062047    -1.530244
H     2.737961    -8.776898    -2.142836
H    -2.736169    -3.969960    -6.197267
O    -1.981584    -4.534890    -5.964690
H    -1.706886    -4.242672    -5.067368
H    -5.648505     3.763680     5.299293
O    -6.298664     4.160749     5.914998
H    -6.134557     5.104698     5.901934
H    -1.010864    -7.118819    -3.158078
O    -0.538990    -6.448097    -2.630438
H     0.368613    -6.378755    -3.010976
H     4.440937     2.023176     5.129032
O     3.499328     2.262340     5.007969
H     3.114392     2.278727     5.889594
H     4.103955     4.664755     6.298518
O     4.184650     5.394382     5.679795
H     3.617741     5.152699     4.908827
H     2.761497     3.622253     3.920351
O     2.583363     4.562022     3.752895
H     2.464856     4.659276     2.786329
H     9.396073     0.213500    -1.065338
O     8.589454     0.376607    -0.572818
H     8.413699    -0.441745    -0.078839
H    -2.110778     5.330466     10.642540
O    -2.832746     4.701866     10.873797
H    -3.051916     4.879802     11.788651
H     7.975958    -3.006203     0.335332
O     8.396329    -2.158965     0.589910
H     8.329937    -2.153237     1.552183
H     5.367712     3.670383     3.524536
O     6.023474     3.937105     4.190631
H     5.610084     4.655279     4.691572
H    -4.218059     5.030792     9.775109
O    -4.850529     5.180424     9.052253
H    -5.462070     4.431529     9.050368
H    -7.004550    -3.485800    -3.489175
O    -7.623180    -4.100461    -3.935747
H    -7.102231    -4.541595    -4.638465
H     0.017384     6.139848     10.763759
O    -0.847115     6.470559     10.515279
H    -0.730706     6.900404     9.648731
H     2.593596     1.491927    -4.106476
O     3.471254     1.845999    -3.867111
H     3.791545     1.331532    -3.096125
H    -6.976783    -0.214024     7.213080
O    -7.485879     0.564751     7.491775
H    -8.108998     0.746374     6.787171
H    -2.736058    -9.875941    -0.823087
O    -2.673006    -8.934414    -0.983681
H    -3.579406    -8.568085    -0.744305
H    -9.969941     2.599959    -5.499688
O    -10.258445     1.879945    -4.906459
H    -10.343796     2.334586    -4.036480
H    -2.068422    -3.020566     4.614194
O    -2.943286    -3.460756     4.683631
H    -2.936344    -4.079569     3.928135
H    -0.174749    -7.980469     2.492433
O     0.651196    -7.768930     2.940629
H     1.370061    -8.065326     2.354782
H     6.703595    -2.366441     6.398932
O     7.153681    -3.076477     5.936428
H     6.524127    -3.811698     5.898473
H    -5.275384    -1.997931     6.940442
O    -5.951303    -1.500385     6.455407
H    -5.934462    -1.878637     5.546734
H     0.841484     3.024778    -7.119063
O     1.759395     2.694916    -7.173767
H     1.747043     1.946491    -7.798686
H    -3.962297     8.762963     6.658793
O    -3.959941     8.758957     5.701430
H    -4.084529     7.830770     5.435567
H    -2.062351     10.309281    -2.752130
O    -2.963240     10.486706    -3.058828
H    -2.890974     11.124844    -3.767936
H     9.411018    -4.053402     4.054472
O     9.131106    -4.730903     4.677647
H     8.700895    -4.257909     5.400950
H    -0.726050    -6.003982    -5.836274
O    -0.022589    -6.569733    -5.501380
H     0.812885    -6.108376    -5.719251
H     1.822625     8.277036     0.655150
O     1.519612     8.597166    -0.223326
H     2.334986     8.635111    -0.752879
H     3.503587     2.923817    -6.664436
O     4.331073     2.634980    -6.254037
H     4.085432     2.361727    -5.345146
H     3.732830     7.125130    -1.236113
O     3.937401     8.060803    -1.450850
H     4.308172     8.003638    -2.343492
H     4.402776    -0.014516    -7.910002
O     4.779071     0.133246    -7.040482
H     4.596852     1.065373    -6.798394
H     6.031958     1.934587    -0.474277
O     6.597515     2.127513    -1.235950
H     7.422205     1.648335    -1.041149
H     6.690788    -8.430807    -1.594175
O     7.327100    -8.220645    -2.330572
H     7.694023    -9.055094    -2.617599
H    -5.292587    -5.796457    -5.407203
O    -5.909851    -5.125123    -5.723000
H    -5.359262    -4.356805    -5.960622
H     0.675279     7.182214     7.592742
O    -0.226525     7.209869     7.951559
H    -0.781564     7.223261     7.133859
H    -8.892656    -2.844266    -4.106000
O    -9.412810    -2.037030    -3.934110
H    -9.131754    -1.370655    -4.565075
H    -2.404278    -5.991920    -2.140307
O    -3.282098    -5.705617    -2.409942
H    -3.468812    -6.081609    -3.295313
H    -2.978281    -5.906999    -5.407018
O    -3.577707    -6.516380    -4.933788
H    -3.095749    -7.336494    -4.766619
H    -1.384202     3.717309    -6.992268
O    -0.846211     2.962140    -6.716342
H    -1.080089     2.175695    -7.266362
H    -0.196619     0.408556    -8.218245
O    -1.092349     0.645045    -7.934807
H    -1.268936     0.120603    -7.137749
H    -10.247758     4.318866    -3.041749
O    -10.385646     3.457701    -2.616972
H    -9.634441     3.374413    -1.997723
H     4.579235     4.084044     1.718127
O     4.370389     3.163384     1.996993
H     5.086762     2.587205     1.717466
H     6.489876     1.396270    -4.217780
O     6.186278     0.772996    -3.523311
H     6.216762     1.269269    -2.679987
H     9.636355    -2.223297    -0.921480
O     9.913546    -2.009388    -1.821206
H     9.113267    -1.671829    -2.265628
H     9.974870    -3.320208    -3.089209
O     9.708503    -3.973111    -3.763554
H     9.315141    -3.466546    -4.484728
H    -7.692122    -8.579375    -1.664425
O    -6.954218    -7.984868    -1.791602
H    -7.332457    -7.071956    -1.783536
H     4.162473     6.078427    -3.826098
O     4.822733     6.780386    -3.740763
H     5.659332     6.327292    -3.602778
H     0.106730    -8.176016    -5.208151
O     0.131238    -9.158727    -5.075160
H     0.281994    -9.523429    -5.947285
H    -2.325279    -8.677592    -2.709415
O    -2.090443    -8.414434    -3.618892
H    -1.443759    -9.033368    -3.976695
H     2.192636    -10.819276    -3.483980
O     2.146128    -9.864724    -3.460691
H     1.361015    -9.594863    -3.987857
H     6.839212     3.328833    -4.574881
O     6.898046     2.649765    -5.274769
H     6.104971     2.781807    -5.816293
H    -3.567145    -3.715249     7.720947
O    -3.681087    -2.928005     7.189984
H    -3.429204    -3.168048     6.272090
H    -0.629893    -3.369639    -6.722847
O    -0.000033    -2.637765    -6.730312
H    -0.482831    -1.862310    -6.390442
H     0.636423     0.471098     8.751413
O     0.644696    -0.244085     8.111294
H    -0.277279    -0.533772     8.023565
H    -5.657488     7.395794    -4.229135
O    -6.198214     6.834275    -4.828800
H    -6.487794     6.078550    -4.263817
H    -4.270820     9.100932    -3.276326
O    -4.811301     8.308892    -3.160421
H    -4.400220     7.827366    -2.423863
H    -9.526216     6.609811    -4.328391
O    -10.016668     5.754296    -4.411804
H    -10.862632     5.998083    -4.800275
H     2.762662     6.523908     6.133962
O     1.802385     6.620161     6.230461
H     1.459451     5.706370     6.129573
H     4.801360     8.549938     0.076688
O     5.117439     8.551868     0.998036
H     5.525341     7.688218     1.130277
H     4.151117    -7.428789    -4.333115
O     3.393530    -7.714364    -4.875678
H     3.113350    -8.555120    -4.498999
H     0.371922     8.665112     4.224458
O     1.049433     8.020136     3.996813
H     1.276293     7.528481     4.812189
H     5.237163     4.190084    -3.160016
O     6.198552     4.161362    -3.106248
H     6.407478     3.580504    -2.357929
H    -2.581067    -1.537162     7.571662
O    -2.071529    -0.743142     7.790795
H    -2.697922    -0.117212     8.164502
H    -8.449529     8.454342    -3.529043
O    -8.605652     8.069866    -4.397510
H    -7.720735     7.731769    -4.667076
H     3.535377    -8.977057     1.101073
O     2.858287    -8.345358     1.348959
H     3.332314    -7.539539     1.628386
H     3.580527     8.176041     1.821121
O     2.789473     7.613121     1.933069
H     2.343475     7.848833     2.759332
N    -8.928336     3.974406    -6.315593
H    -7.985669     3.815954    -6.199682
H    -9.149831     4.669353    -5.664244
