33
Coordinates from ORCA-job grain_mol_opt.QMRegion
  H   -0.15023324474563     -3.44568609369133      3.73593622599369
  O   -0.47870523324842     -2.66050036501918      4.20209309108553
  H   0.20403139390268     -2.44177964327034      4.85856040990713
  H   -2.44665966942785     -3.62891091876422      1.87207815000217
  O   -2.48701884149898     -4.51606205000781      2.29489320000769
  H   -1.55775016879910     -4.83170135389531      2.31911069720761
  H   1.97702641636429     -1.72644061703710      2.90389321345809
  O   2.10459031912899     -2.67744147488946      2.77091270788588
  H   1.46402276180456     -2.90011063757750      2.06395506869169
  H   0.73387312179775     -5.10517459065515      1.88212102448468
  O   0.18092923598353     -5.10414221994480      2.69164398074368
  H   0.29396384336409     -6.01682460701250      3.01816621453912
  H   2.04095224183297     -3.61374525357853      4.31437702141080
  O   2.02434827151608     -4.07662761849678      5.17860382986939
  H   2.54267883149691     -3.49072198726143      5.76764273401196
  H   2.45434950736395     -5.64969356691197      4.86527699474396
  O   2.82471636255836     -6.53058831361872      4.60566995252204
  H   2.07580914829910     -7.11943758093105      4.47325725451597
  H   2.05847012736789     -0.76853031447017      5.26772236511934
  O   1.51980382374589     -1.32979390681115      5.85884407857159
  H   1.53094418178754     -0.91834571505918      6.74203592403870
  H   -2.18060558652677     -2.95810700542701      4.60564515592940
  O   -2.97237416315477     -3.52441075769503      4.71881638994535
  H   -2.94659836861222     -4.05971131617509      3.89069445843973
  H   -0.18165429377975     -8.06481567066186      2.40575008434772
  O   0.65397957290280     -7.88121577388957      2.85400298294291
  H   1.35419351825976     -8.13629141903201      2.22196337378021
  H   -3.70068020169415     -3.58404919166801      7.85763194226494
  O   -3.72687142019658     -2.87605838318867      7.21425267631333
  H   -3.51295758389206     -3.26992797167656      6.34048059989903
  O   -0.54919506757357     -5.48214290096121      5.71595223555892
  H   0.24157480265718     -4.92257351893319      5.70892994532692
  H   -1.27201231183280     -4.86564417457257      5.54730675536513
