603

H     0.205628     3.031783    -0.686294
O     0.729712     2.363764    -1.178592
H     1.667721     2.491604    -0.901340
H    -0.086226    -1.310161     3.138155
O     0.307024    -0.609716     2.594909
H    -0.170190     0.203961     2.828361
H    -2.394510     2.412455    -0.553674
O    -2.187613     1.941232     0.270800
H    -2.201170     0.993614     0.045163
H    -4.669615     0.547472     2.154673
O    -4.989397    -0.385142     2.162739
H    -4.478086    -0.863349     1.501705
H     0.061023    -0.309763     0.939856
O    -0.134014    -0.071458     0.012768
H     0.207879     0.824520    -0.105644
H    -0.168005    -3.581146     3.762460
O    -0.448037    -2.751135     4.182401
H     0.195492    -2.581621     4.886880
H    -4.888537     2.532290     1.304360
O    -4.251880     2.120798     1.920512
H    -3.406958     2.103667     1.411253
H    -3.238584     3.902454    -2.230753
O    -2.502989     3.303766    -1.998182
H    -2.140764     3.017775    -2.856861
H    -0.128131    -3.805551     0.487685
O     0.210610    -2.988202     0.906819
H    -0.577373    -2.502119     1.217414
H    -2.385695    -1.540049     2.448709
O    -2.195561    -2.005468     1.607581
H    -2.449414    -1.416485     0.878121
H     2.076578    -1.443404    -1.127099
O     2.304902    -1.697165    -0.209135
H     1.514379    -2.125017     0.171622
H    -1.394479     1.824156     1.897740
O    -1.491501     1.424983     2.772445
H    -1.478126     2.135998     3.438965
H     0.213357    -2.701636    -1.583763
O    -0.541830    -2.089478    -1.640237
H    -0.364017    -1.364047    -1.004691
H    -3.434561    -2.923166    -0.416389
O    -2.718167    -3.414777    -0.838945
H    -2.005451    -2.784995    -1.051554
H     2.763079     0.124337     2.931473
O     2.858446    -0.059616     3.893243
H     2.949133     0.832614     4.299539
H    -3.524025     6.382884    -0.559655
O    -3.283290     7.045655    -1.258788
H    -3.142209     7.890429    -0.787510
H     3.898639     0.580582     1.188259
O     2.947522     0.399254     1.300547
H     2.712190    -0.352546     0.719670
H    -5.774914     0.848902    -1.632598
O    -4.864567     1.175165    -1.505689
H    -4.975264     2.003778    -0.994004
H    -1.216378     5.395634     2.199881
O    -1.841257     4.648801     2.080228
H    -1.921970     4.229314     2.942112
H     3.493818     2.760818     0.428212
O     3.248409     2.718774    -0.511714
H     3.582412     1.876653    -0.861989
H     1.497359    -4.695650    -2.262541
O     1.559449    -3.918530    -1.688891
H     2.355975    -3.457719    -2.036173
H    -0.911564    -0.081803    -2.561772
O    -0.277839     0.571581    -2.884594
H    -0.018128     1.152890    -2.146472
H     1.697690    -4.686420    -0.190534
O     1.801607    -5.324139     0.551864
H     1.339181    -6.135007     0.253436
H    -1.216339    -3.262161    -2.898379
O    -1.044245    -3.944634    -3.560437
H    -0.917933    -4.792486    -3.092756
H    -2.794503     3.305434     4.687146
O    -1.813206     3.301852     4.656039
H    -1.523344     2.899270     5.492983
H     0.950747     5.029879     4.072806
O     0.004532     5.262207     4.121705
H    -0.468385     4.458983     4.377685
H    -1.731911    -4.649698    -0.394454
O    -0.967783    -5.190728    -0.107626
H    -1.316984    -5.878401     0.468775
H    -3.906290     5.837068    -2.616373
O    -4.256525     5.003884    -2.949246
H    -4.097093     4.970451    -3.916696
H    -2.438727    -3.690411     1.912489
O    -2.459246    -4.595317     2.286253
H    -1.520115    -4.834118     2.430206
H    -4.686964    -2.978821    -2.925947
O    -3.834837    -3.207181    -3.333978
H    -3.501014    -4.000992    -2.870262
H     0.324586     1.371734     4.605952
O     0.831489     2.132116     4.274221
H     0.878985     2.790134     4.982101
H    -4.648784    -5.167724    -1.604646
O    -5.351522    -4.809432    -1.034735
H    -5.146182    -5.167064    -0.149567
H     2.336949    -6.479085    -4.050409
O     1.996849    -6.150897    -3.197818
H     2.428757    -6.725678    -2.533651
H     0.478582    -3.375138    -4.019895
O     1.282835    -3.007824    -4.439489
H     0.967215    -2.635181    -5.288884
H     1.953613    -1.757234     2.974765
O     2.108708    -2.687970     2.756735
H     1.424934    -2.900385     2.087309
H    -3.004464    -1.804400    -3.233683
O    -2.582740    -0.918110    -3.166263
H    -3.235961    -0.271242    -3.487648
H    -3.191497     4.976278     1.062796
O    -3.971941     5.350008     0.606203
H    -4.388688     5.907815     1.311735
H     0.868613     2.250383     2.584484
O     0.972368     2.246349     1.613534
H     1.700099     1.623519     1.451219
H     0.196004     5.658032    -0.763163
O     0.719133     6.320086    -1.270078
H     0.860360     7.119298    -0.713093
H     0.337814     7.033215     2.587709
O    -0.021836     6.653641     1.768773
H     0.642935     5.983213     1.508850
H    -2.490804     0.213270     3.320962
O    -2.714997    -0.601636     3.823437
H    -1.956900    -0.642246     4.448198
H    -0.914189     0.547680     6.010796
O    -0.638035     0.028946     5.236589
H     0.074412    -0.575031     5.525056
H     0.700693    -4.997022     1.965221
O     0.155144    -5.107090     2.767390
H     0.298760    -6.027965     3.039321
H    -2.124839    -8.087801     0.419685
O    -1.804446    -7.599983     1.205838
H    -2.591892    -7.290385     1.660971
H    -0.368309     6.866782    -2.331217
O    -1.113147     7.287117    -2.832658
H    -1.904773     7.161049    -2.271395
H    -1.113054     4.309837     0.563166
O    -0.737557     4.371386    -0.331863
H    -1.442350     4.130780    -0.966516
H    -4.419707     2.745847     3.483667
O    -4.421418     2.915226     4.448275
H    -4.506485     2.031844     4.856353
H     2.008167    -3.588221     4.235096
O     1.940983    -4.061414     5.087476
H     2.446509    -3.526021     5.720482
H     4.683557    -3.198564     0.839120
O     4.526225    -3.121650    -0.127834
H     3.667917    -2.643828    -0.213414
H    -2.717735    -0.745264    -1.373258
O    -3.048971    -0.476557    -0.499970
H    -3.847347     0.051310    -0.708721
H    -1.600260    -0.754607    -4.648688
O    -1.092413    -0.537773    -5.451620
H    -0.382462     0.057820    -5.164427
H     1.805413    -1.712180    -3.385116
O     1.895516    -0.965975    -2.760955
H     1.119204    -0.388221    -2.894473
H     3.653001    -3.127407     2.547263
O     4.612123    -3.356685     2.476812
H     4.666131    -4.316959     2.602984
H     3.412550    -6.127064     3.115837
O     3.771193    -5.925357     2.216956
H     3.035624    -5.578706     1.672194
H    -3.329439     1.615776    -4.200166
O    -4.175937     1.145926    -4.012101
H    -4.395201     1.292018    -3.055797
H    -5.079141     4.150677     0.043250
O    -5.518504     3.285309    -0.064758
H    -6.448175     3.406964    -0.346731
H     6.737963    -1.184698    -1.353748
O     5.963558    -1.035313    -0.804876
H     5.543844    -1.903166    -0.609411
H     4.599932    -3.169138    -2.470833
O     3.733490    -2.997003    -2.889522
H     3.739316    -3.615104    -3.646250
H     4.414842    -2.302860     5.621706
O     4.068752    -2.769173     6.412997
H     4.403928    -3.674165     6.331667
H    -0.767568     6.332873     5.067465
O    -1.365852     6.908344     5.604139
H    -1.377244     7.785973     5.163742
H     4.703321    -0.137574    -1.463206
O     3.936922     0.405327    -1.728057
H     3.245431    -0.194779    -2.060835
H    -0.727241     4.528489    -4.046923
O    -1.509491     5.071679    -4.256435
H    -1.358670     5.938070    -3.832885
H     0.669900     3.206311    -2.664556
O     0.679363     3.583653    -3.572827
H     0.729307     2.820747    -4.158807
H    -5.394335    -5.192259     1.757942
O    -4.696384    -5.784524     1.401584
H    -3.856457    -5.371275     1.678084
H     7.893301    -1.691121    -4.022025
O     7.632548    -1.378682    -3.122938
H     7.146813    -0.534348    -3.280157
H     3.715363    -5.069667    -5.295668
O     4.476103    -4.696712    -4.811662
H     4.858801    -5.408456    -4.265463
H    -3.800912     0.014890     4.910464
O    -4.403659     0.478843     5.541024
H    -5.064841    -0.179306     5.830797
H     3.462361    -5.944389    -0.526428
O     4.335909    -5.697229    -0.841943
H     4.412603    -4.735206    -0.696603
H     5.013621    -0.334826    -4.156760
O     4.478748    -1.045229    -4.549038
H     4.150549    -1.629441    -3.832850
H    -1.160160     1.576822    -3.950626
O    -1.810127     2.196667    -4.338641
H    -1.448696     2.530128    -5.182719
H     4.888304    -6.323082    -2.318465
O     5.223726    -6.647132    -3.183427
H     6.040749    -7.128958    -2.994627
H     8.746210    -5.094766    -2.907712
O     8.052638    -5.512602    -2.352271
H     8.087231    -6.469864    -2.455060
H     2.339044     4.717638     0.452079
O     1.756936     4.699219     1.221082
H     1.399057     3.779001     1.296852
H    -4.431249    -2.636312     4.202017
O    -5.324327    -2.296263     3.996366
H    -5.185394    -1.514155     3.422999
H    -5.852759    -3.192552     1.283577
O    -6.320747    -3.748701     1.948393
H    -6.133322    -3.316454     2.800813
H     1.665562     3.460455     6.859459
O     1.044555     3.976709     6.324016
H     0.259961     4.129915     6.893428
H     4.987406    -2.176317     3.617910
O     5.005998    -1.458725     4.282802
H     4.194969    -0.901928     4.124128
H     2.370886    -5.583492     4.828272
O     2.751292    -6.467157     4.568301
H     2.006562    -7.048281     4.391618
H     2.276148    -4.510533    -6.800189
O     2.103469    -4.999680    -5.985756
H     1.837715    -4.309178    -5.330232
H     6.438303    -4.107131    -0.499323
O     7.189787    -4.510962    -0.033971
H     7.699217    -4.933393    -0.753445
H    -1.748335     4.483258     7.687972
O    -0.850556     4.580441     8.076089
H    -0.669249     5.539485     8.102382
H    -5.099004     5.701166    -5.619155
O    -4.493171     4.936186    -5.638837
H    -3.733266     5.151067    -6.201249
H     3.306563    -2.521176    -8.441311
O     3.215688    -3.053915    -7.640389
H     4.091131    -3.031118    -7.208967
H    -0.648124     8.829915    -2.283909
O    -0.526737     9.657626    -1.763648
H     0.233706     9.482455    -1.184679
H     2.048212    -0.919264     5.205397
O     1.472771    -1.445277     5.790061
H     1.564118    -1.101387     6.688097
H     5.221973    -2.022016    -5.690696
O     5.569174    -2.788003    -6.212388
H     5.293573    -3.578303    -5.696308
H     5.676341    -5.223544     4.686735
O     5.151413    -5.138864     5.511744
H     4.430133    -5.770759     5.423610
H    -3.997228     1.141619     6.983323
O    -3.807454     1.616699     7.827975
H    -4.684203     2.002501     8.086527
H    -1.844483     9.616679    -0.754468
O    -2.706645     9.489806    -0.283233
H    -3.316020     10.119667    -0.671697
H    -5.936848     4.696592    -2.965722
O    -6.844894     4.576577    -3.311678
H    -6.752695     3.875790    -3.989701
H     0.092885    -7.063567    -1.162136
O     0.554704    -7.500197    -0.413509
H    -0.126475    -7.695914     0.232993
H    -7.629728     3.798916    -2.005650
O    -7.895386     3.211236    -1.267524
H    -7.749729     2.303126    -1.606229
H     3.949511    -0.902119     6.986352
O     3.958457     0.062040     6.977740
H     4.772527     0.351905     6.549468
H     2.264410     5.796049    -1.178982
O     3.199349     5.502679    -1.061977
H     3.378359     4.963354    -1.855150
H     6.544028    -5.934800     0.674834
O     6.173198    -6.671471     1.206488
H     5.268207    -6.393990     1.430949
H    -3.891902     4.724119     7.760987
O    -3.323601     4.261696     7.103074
H    -3.517634     3.318254     7.212396
H     5.756282    -7.949864     0.136343
O     5.470013    -8.636192    -0.502731
H     4.642295    -8.309822    -0.899257
H    -0.582120     2.034833     7.681366
O    -1.213099     1.971164     6.944225
H    -2.082844     1.829696     7.338082
H    -6.383073    -0.117963     1.025959
O    -6.707850    -0.203565     0.114326
H    -7.626737    -0.472456     0.139726
H    -5.371731    -3.061589    -0.618884
O    -5.121217    -2.357359     0.005268
H    -5.692609    -1.585571    -0.181229
H     4.318678     5.575094     0.327271
O     4.649608     5.674632     1.233668
H     3.954020     6.184983     1.684181
H    -9.075490    -1.747153    -2.228930
O    -8.529179    -1.559782    -1.448946
H    -8.626190    -2.290573    -0.790414
H    -5.509884     3.477318    -5.553770
O    -6.026931     2.764306    -5.142241
H    -5.359381     2.181750    -4.725759
H     3.196785    -0.884876    -5.657986
O     2.342168    -1.004216    -6.126465
H     2.429437    -1.852587    -6.600857
H     8.131674    -1.349054    -6.016856
O     8.137867    -2.213378    -5.561019
H     7.282417    -2.612825    -5.814778
H     7.640094     0.991964    -6.297071
O     7.451872     0.144130    -6.711597
H     6.470657     0.094720    -6.750900
H    -7.868058    -3.674202     1.025636
O    -8.580683    -3.578574     0.365799
H    -8.458237    -4.339758    -0.232901
H    -2.407773     8.737587     1.281377
O    -2.259951     8.148035     2.034203
H    -1.489066     7.595039     1.813643
H    -4.452620     6.435553     3.476794
O    -4.619853     6.861852     2.619796
H    -3.856028     7.448041     2.483334
H     3.412712     3.447887    -3.575539
O     3.259458     4.417097    -3.481764
H     2.295041     4.482522    -3.592459
H    -6.114462    -1.596790    -3.529299
O    -6.222654    -2.194229    -2.759058
H    -6.988715    -1.872010    -2.225707
H     6.452116     1.041519     4.748942
O     6.055934     1.579834     5.451016
H     6.245469     2.498694     5.161594
H     1.379265     1.726611    -5.828802
O     1.181366     1.129921    -5.076028
H     1.546569     0.267308    -5.345132
H    -2.522215     2.955692     10.466959
O    -2.309566     2.048304     10.193254
H    -2.905286     1.849657     9.459013
H     7.616033    -0.505352     3.095047
O     6.865687     0.070524     3.261775
H     6.172053    -0.529755     3.638774
H    -5.664731    -8.050273    -0.737900
O    -4.930480    -8.118924    -0.091285
H    -4.937002    -7.303091     0.432746
H    -5.162822    -0.113747    -4.739732
O    -5.783338    -0.823026    -4.979107
H    -6.614829    -0.375884    -5.189911
H     1.912177    -0.192652    -7.521254
O     1.712961     0.280066    -8.365248
H     2.291549    -0.124578    -9.017059
H     4.899082    -1.387583    -9.302026
O     3.974892    -1.157982    -9.586896
H     3.957683    -1.275188    -10.536086
H     7.547752    -2.579311     4.209366
O     7.697235    -2.614410     3.250247
H     7.204698    -3.405051     2.976293
H     6.707516    -5.901650     2.688578
O     6.767228    -5.226913     3.390308
H     7.641718    -5.312754     3.810992
H    -1.828417     8.946226     3.487469
O    -1.583254     9.249921     4.386791
H    -2.433314     9.382569     4.839871
H    -7.372741     1.571836    -5.285083
O    -7.957155     0.833839    -5.042174
H    -8.854040     1.249141    -4.965710
H     6.950573    -1.079544    -8.395619
O     6.368686    -1.799796    -8.661593
H     6.138368    -2.250535    -7.830807
H    -1.653839     6.248110    -7.034562
O    -2.053315     5.423299    -6.761881
H    -1.806972     5.292035    -5.797792
H    -0.027276     3.303534     9.014491
O     0.168331     2.383355     9.269142
H    -0.631662     2.119271     9.773027
H     6.761575    -2.781375    -2.698122
O     6.229441    -3.525623    -2.359715
H     6.698508    -4.336484    -2.605105
H    -4.065410    -3.065880    -4.970579
O    -4.219034    -2.953690    -5.935727
H    -4.761651    -2.157961    -5.994470
H     1.953153     2.175670     8.461726
O     2.619007     2.288167     7.773591
H     3.041190     1.417806     7.659016
H    -6.846591    -5.205515    -1.402435
O    -7.780897    -5.464184    -1.602298
H    -7.892023    -5.131246    -2.515397
H    -3.843668     5.254579     5.678165
O    -3.808665     6.023108     5.087574
H    -2.874935     6.317222     5.185127
H    -7.880930     0.096674    -2.000664
O    -7.387666     0.818129    -2.413512
H    -7.614849     0.811377    -3.366226
H     5.834780     0.126398     0.418714
O     5.611139     0.847501     1.039461
H     6.118807     0.651448     1.853845
H    -6.238367     3.309681     7.367930
O    -6.113042     2.790703     8.196459
H    -6.713581     2.029858     8.105962
H     2.274555    -8.074337    -0.854012
O     2.953163    -8.060998    -1.548650
H     2.730034    -8.774759    -2.162812
H    -2.728438    -3.953691    -6.221479
O    -1.976736    -4.521017    -5.987057
H    -1.702502    -4.230530    -5.088862
H    -5.659748     3.761625     5.283379
O    -6.310986     4.157960     5.898374
H    -6.146314     5.101840     5.887146
H    -1.014532    -7.110447    -3.184165
O    -0.543823    -6.440622    -2.654408
H     0.365383    -6.372342    -3.031579
H     4.427892     2.009990     5.133158
O     3.486745     2.249991     5.010278
H     3.099830     2.265729     5.891047
H     4.090881     4.649999     6.306710
O     4.174163     5.380523     5.689397
H     3.608633     5.141059     4.916689
H     2.753136     3.613135     3.923345
O     2.576483     4.553428     3.757456
H     2.460163     4.652843     2.790780
H     9.395617     0.206669    -1.052893
O     8.587734     0.369382    -0.562336
H     8.410191    -0.449592    -0.070054
H    -2.132985     5.314339     10.637471
O    -2.856092     4.686002     10.865919
H    -3.077361     4.862645     11.780518
H     7.968609    -3.014370     0.338388
O     8.389245    -2.168038     0.595443
H     8.320670    -2.163944     1.557575
H     5.360086     3.659449     3.533758
O     6.014566     3.923896     4.202016
H     5.600907     4.641729     4.703264
H    -4.238412     5.018700     9.764641
O    -4.868995     5.170289     9.040545
H    -5.481462     4.422174     9.035996
H    -7.029711    -3.480716    -3.579444
O    -7.624632    -4.108594    -4.062738
H    -7.044877    -4.540599    -4.733853
H    -0.004277     6.121535     10.764966
O    -0.867958     6.453347     10.515117
H    -0.749211     6.884746     9.649646
H     2.601299     1.497742    -4.107178
O     3.478991     1.850080    -3.865847
H     3.797031     1.334447    -3.094725
H    -6.997260    -0.218665     7.186591
O    -7.505717     0.560434     7.465360
H    -8.127480     0.743817     6.760015
H    -2.748061    -9.869894    -0.858815
O    -2.684016    -8.928108    -1.017611
H    -3.590673    -8.561689    -0.779437
H    -10.053406     3.086920    -4.941674
O    -10.168796     2.170060    -4.657929
H    -10.388972     2.258130    -3.708917
H    -2.085606    -3.025785     4.593720
O    -2.961344    -3.464819     4.659922
H    -2.953057    -4.082897     3.903948
H    -0.192403    -7.984133     2.467188
O     0.632691    -7.773637     2.917375
H     1.352669    -8.070016     2.332865
H     6.683010    -2.384351     6.400091
O     7.133193    -3.094055     5.937173
H     6.502920    -3.828509     5.896608
H    -5.296923    -2.004214     6.914510
O    -5.970948    -1.504957     6.428581
H    -5.953083    -1.882021     5.519612
H     0.858557     3.038979    -7.121136
O     1.775914     2.707234    -7.174281
H     1.763789     1.960377    -7.800979
H    -3.971877     8.755992     6.655924
O    -3.966980     8.754062     5.698566
H    -4.092068     7.826689     5.430236
H    -2.046571     10.318804    -2.747033
O    -2.947218     10.500492    -3.051776
H    -2.873192     11.135772    -3.763264
H     9.393944    -4.070071     4.058849
O     9.111480    -4.748462     4.679900
H     8.680406    -4.276339     5.403258
H    -0.721589    -5.991179    -5.860095
O    -0.019980    -6.558037    -5.523507
H     0.816811    -6.097624    -5.738557
H     1.827030     8.274848     0.665111
O     1.526435     8.597166    -0.213248
H     2.342775     8.635356    -0.741179
H     3.519317     2.934058    -6.660581
O     4.345416     2.642828    -6.249081
H     4.097374     2.368582    -5.341140
H     3.739961     7.124645    -1.224230
O     3.946711     8.060394    -1.436513
H     4.318755     8.004699    -2.328688
H     4.418170    -0.003005    -7.909897
O     4.792058     0.142267    -7.038934
H     4.610656     1.074261    -6.795475
H     6.031843     1.930316    -0.466605
O     6.599281     2.123698    -1.226755
H     7.423080     1.643485    -1.030837
H     6.681861    -8.434051    -1.604480
O     7.319907    -8.223120    -2.339139
H     7.687052    -9.057331    -2.626580
H    -5.292928    -5.780814    -5.437439
O    -5.906208    -5.103622    -5.749154
H    -5.350415    -4.340202    -5.991505
H     0.661916     7.168858     7.597483
O    -0.240698     7.196572     7.954251
H    -0.793768     7.212310     7.135196
H    -8.658863    -2.470949    -4.461459
O    -9.240097    -1.744924    -4.173975
H    -8.970919    -0.970805    -4.684045
H    -2.409481    -5.983738    -2.166504
O    -3.285303    -5.694758    -2.439938
H    -3.470152    -6.071278    -3.325357
H    -2.975757    -5.892709    -5.434841
O    -3.579411    -6.500751    -4.965179
H    -3.100116    -7.322392    -4.797075
H    -1.368653     3.734626    -6.995519
O    -0.830297     2.978057    -6.723049
H    -1.065293     2.193764    -7.274947
H    -0.180137     0.425913    -8.228125
O    -1.076979     0.660987    -7.946947
H    -1.254028     0.136957    -7.149794
H    -10.415263     4.063602    -2.773410
O    -10.481613     3.280577    -2.211134
H    -9.655811     3.256673    -1.696158
H     4.575867     4.077346     1.726312
O     4.365783     3.156154     2.002800
H     5.082536     2.580158     1.723957
H     6.497873     1.398310    -4.210048
O     6.192035     0.773929    -3.517520
H     6.221026     1.268640    -2.673197
H     9.632814    -2.230862    -0.913126
O     9.912243    -2.015814    -1.811886
H     9.113431    -1.676278    -2.257430
H     9.975147    -3.324241    -3.082077
O     9.709503    -3.975559    -3.758252
H     9.318613    -3.467135    -4.479454
H    -7.691005    -8.566837    -1.788728
O    -6.954943    -7.959170    -1.844020
H    -7.345238    -7.053440    -1.811048
H     4.174490     6.082521    -3.815016
O     4.835573     6.783404    -3.727267
H     5.671227     6.329053    -3.587773
H     0.106690    -8.165433    -5.233093
O     0.128648    -9.148296    -5.101470
H     0.281548    -9.512193    -5.973565
H    -2.332801    -8.668322    -2.742028
O    -2.096318    -8.402652    -3.650425
H    -1.449826    -9.021581    -4.008755
H     2.185866    -10.813955    -3.508815
O     2.140016    -9.859398    -3.484136
H     1.356052    -9.588122    -4.012160
H     6.850284     3.331002    -4.562602
O     6.909985     2.653161    -5.263658
H     6.118390     2.787355    -5.806814
H    -3.592576    -3.724467     7.696004
O    -3.704362    -2.936311     7.165934
H    -3.450395    -3.175098     6.248355
H    -0.620447    -3.355315    -6.740995
O     0.009715    -2.623887    -6.745684
H    -0.472618    -1.848490    -6.404907
H     0.613493     0.455328     8.743587
O     0.622287    -0.258812     8.102300
H    -0.299881    -0.547066     8.011948
H    -5.817572     7.377763    -4.275505
O    -6.319477     6.759125    -4.837846
H    -6.609160     6.029164    -4.247281
H    -4.265251     9.110374    -3.281336
O    -4.801342     8.314188    -3.177134
H    -4.395415     7.834536    -2.436946
H    -9.696328     5.807114    -4.682378
O    -10.230269     5.001940    -4.522683
H    -11.110270     5.205045    -4.841832
H     2.752148     6.510982     6.142299
O     1.791788     6.607930     6.237081
H     1.448067     5.694808     6.133271
H     4.806835     8.545967     0.093766
O     5.121179     8.545850     1.015732
H     5.527595     7.681399     1.147210
H     4.149613    -7.424074    -4.347410
O     3.392595    -7.707513    -4.891924
H     3.111066    -8.548984    -4.517836
H     0.367797     8.658221     4.230741
O     1.045480     8.013088     4.003972
H     1.269537     7.519719     4.819015
H     5.245755     4.191966    -3.149857
O     6.207010     4.161344    -3.094341
H     6.413452     3.579280    -2.346294
H    -2.603817    -1.547206     7.552997
O    -2.093768    -0.754164     7.774359
H    -2.720022    -0.128165     8.148202
H    -9.012791     7.948327    -4.179606
O    -8.947805     7.361689    -4.934644
H    -7.990355     7.199333    -5.068628
H     3.519390    -8.982019     1.082996
O     2.842499    -8.349546     1.329450
H     3.316954    -7.545050     1.612029
H     3.581827     8.170118     1.834938
O     2.790544     7.607093     1.944405
H     2.342139     7.842421     2.769471
N    -10.587466    -4.590783    -3.943567
H    -9.632712    -4.634674    -4.086554
H    -10.785580    -3.670067    -4.147315
