603

H     0.205338     3.059698    -0.665643
O     0.726665     2.390907    -1.159434
H     1.666110     2.517721    -0.886419
H    -0.078913    -1.290883     3.149444
O     0.314061    -0.589509     2.607250
H    -0.162015     0.224036     2.843288
H    -2.394998     2.441746    -0.526086
O    -2.186629     1.968925     0.297396
H    -2.202246     1.021823     0.069145
H    -4.662570     0.573580     2.185919
O    -4.982069    -0.358900     2.194985
H    -4.476968    -0.835542     1.528014
H     0.062936    -0.285368     0.953054
O    -0.135434    -0.045061     0.027329
H     0.206935     0.850743    -0.091151
H    -0.161040    -3.562925     3.768811
O    -0.438799    -2.733842     4.192101
H     0.207673    -2.566657     4.894407
H    -4.883152     2.559711     1.340554
O    -4.244098     2.148399     1.954022
H    -3.401365     2.129960     1.440741
H    -3.246837     3.928171    -2.198019
O    -2.509162     3.332924    -1.965342
H    -2.146359     3.054135    -2.826649
H    -0.132044    -3.779933     0.493269
O     0.209078    -2.964387     0.913961
H    -0.577462    -2.477704     1.227275
H    -2.381207    -1.516399     2.466804
O    -2.193474    -1.980150     1.624432
H    -2.449862    -1.390045     0.896624
H     2.069863    -1.416764    -1.123349
O     2.300893    -1.672933    -0.206606
H     1.511041    -2.100728     0.175572
H    -1.387983     1.846767     1.920102
O    -1.482156     1.446578     2.794716
H    -1.465401     2.156349     3.462279
H     0.203524    -2.671954    -1.576654
O    -0.551432    -2.059235    -1.628762
H    -0.370617    -1.334943    -0.992887
H    -3.442061    -2.891973    -0.398608
O    -2.725900    -3.384060    -0.821090
H    -2.014420    -2.754098    -1.037321
H     2.771579     0.140520     2.936613
O     2.869875    -0.045372     3.897809
H     2.962956     0.845926     4.305454
H    -3.549463     6.416135    -0.439497
O    -3.330282     7.079270    -1.154313
H    -3.170281     7.923092    -0.686530
H     3.901504     0.599714     1.190579
O     2.950661     0.418928     1.306141
H     2.712489    -0.330917     0.723781
H    -5.781134     0.883109    -1.599153
O    -4.870314     1.208966    -1.472731
H    -4.978974     2.035417    -0.958273
H    -1.204407     5.417807     2.229408
O    -1.832868     4.673687     2.110840
H    -1.909177     4.250959     2.971567
H     3.497042     2.781750     0.437173
O     3.247950     2.742245    -0.501774
H     3.580178     1.900973    -0.855824
H     1.482807    -4.665580    -2.264197
O     1.548371    -3.890429    -1.688323
H     2.343839    -3.429359    -2.037765
H    -0.922537    -0.048528    -2.545914
O    -0.287373     0.603877    -2.868001
H    -0.025876     1.183455    -2.129419
H     1.690629    -4.661519    -0.192696
O     1.796191    -5.301151     0.547964
H     1.331732    -6.110642     0.249060
H    -1.232335    -3.227496    -2.888710
O    -1.060811    -3.909172    -3.551718
H    -0.935290    -4.757773    -3.085548
H    -2.777038     3.323945     4.717743
O    -1.795882     3.320343     4.683525
H    -1.503419     2.914920     5.518189
H     0.968220     5.046041     4.094802
O     0.022337     5.279306     4.148092
H    -0.450218     4.475632     4.403357
H    -1.739108    -4.620370    -0.385095
O    -0.974916    -5.163352    -0.101881
H    -1.323558    -5.851491     0.474186
H    -3.998571     5.803016    -2.515999
O    -4.310054     4.969827    -2.875128
H    -4.134284     4.966311    -3.852471
H    -2.437910    -3.665580     1.925849
O    -2.457936    -4.570965     2.298668
H    -1.518521    -4.811112     2.438382
H    -4.701218    -2.936483    -2.906571
O    -3.849456    -3.169047    -3.314073
H    -3.519220    -3.964595    -2.851540
H     0.340025     1.387055     4.621994
O     0.846218     2.147992     4.290426
H     0.897315     2.803994     4.999844
H    -4.664649    -5.130723    -1.586385
O    -5.365992    -4.778073    -1.011470
H    -5.153355    -5.135864    -0.128536
H     2.314763    -6.445591    -4.059342
O     1.978107    -6.119461    -3.204652
H     2.411893    -6.696051    -2.543402
H     0.460065    -3.340026    -4.015155
O     1.263527    -2.973136    -4.436733
H     0.945120    -2.597759    -5.283984
H     1.959995    -1.739892     2.978103
O     2.113318    -2.670405     2.757912
H     1.427278    -2.880534     2.089993
H    -3.019164    -1.766988    -3.213807
O    -2.596091    -0.881249    -3.145059
H    -3.249942    -0.233679    -3.463730
H    -3.183128     5.004257     1.096651
O    -3.964260     5.381996     0.643590
H    -4.377122     5.937211     1.353583
H     0.878573     2.269634     2.600888
O     0.978882     2.268179     1.629644
H     1.704982     1.644556     1.462944
H     0.199118     5.686357    -0.738408
O     0.723441     6.348645    -1.243540
H     0.868066     7.145970    -0.684529
H     0.353034     7.052908     2.616814
O    -0.011703     6.675410     1.799127
H     0.651917     6.005680     1.533654
H    -2.481157     0.234666     3.343795
O    -2.704663    -0.580515     3.846092
H    -1.944022    -0.623625     4.467499
H    -0.894746     0.561305     6.029379
O    -0.621772     0.044202     5.253061
H     0.090994    -0.561372     5.537481
H     0.700145    -4.975740     1.965563
O     0.157576    -5.087215     2.769597
H     0.301058    -6.008919     3.038678
H    -2.133303    -8.059897     0.423053
O    -1.810162    -7.575182     1.209955
H    -2.595914    -7.264148     1.667061
H    -0.303684     6.912507    -2.255566
O    -1.072738     7.313214    -2.748323
H    -1.824300     7.150955    -2.138395
H    -1.108617     4.334768     0.589409
O    -0.736690     4.400679    -0.306596
H    -1.442486     4.159301    -0.940313
H    -4.406313     2.768929     3.518385
O    -4.405383     2.936626     4.483417
H    -4.489454     2.052274     4.889728
H     2.016676    -3.573796     4.234232
O     1.952016    -4.048727     5.085897
H     2.460349    -3.515211     5.718218
H     4.681125    -3.179307     0.830146
O     4.520632    -3.100272    -0.136033
H     3.662636    -2.621131    -0.217879
H    -2.725153    -0.712933    -1.352118
O    -3.052307    -0.445586    -0.476699
H    -3.851750     0.082187    -0.681885
H    -1.618606    -0.715715    -4.631627
O    -1.111898    -0.498271    -5.435088
H    -0.401168     0.096828    -5.148825
H     1.790662    -1.680040    -3.381177
O     1.883738    -0.935984    -2.754887
H     1.107846    -0.356628    -2.884740
H     3.656417    -3.110893     2.541989
O     4.615067    -3.341147     2.468165
H     4.668256    -4.301823     2.591545
H     3.414582    -6.111562     3.104497
O     3.770472    -5.908382     2.204926
H     3.033571    -5.559573     1.663243
H    -3.342424     1.656578    -4.171399
O    -4.189628     1.188393    -3.982201
H    -4.404922     1.330153    -3.024841
H    -5.076880     4.182771     0.083855
O    -5.517273     3.318519    -0.024084
H    -6.447447     3.439839    -0.304824
H     6.730402    -1.162884    -1.365443
O     5.958712    -1.014080    -0.812589
H     5.538284    -1.881815    -0.618361
H     4.586724    -3.142450    -2.479487
O     3.718911    -2.968556    -2.894492
H     3.721366    -3.584372    -3.653069
H     4.429461    -2.294159     5.615786
O     4.085739    -2.761891     6.407326
H     4.419522    -3.667092     6.322561
H    -0.745088     6.348124     5.098505
O    -1.341509     6.923449     5.637794
H    -1.352373     7.801948     5.199652
H     4.696640    -0.113647    -1.465129
O     3.929863     0.430785    -1.725418
H     3.236691    -0.167422    -2.058257
H    -0.603412     4.535371    -4.034213
O    -1.400866     5.065028    -4.245444
H    -1.249897     5.916510    -3.791723
H     0.667854     3.233770    -2.643256
O     0.679045     3.614620    -3.549722
H     0.718137     2.855615    -4.141377
H    -5.393943    -5.164087     1.779251
O    -4.698362    -5.758632     1.421709
H    -3.857007    -5.345255     1.693754
H     7.876287    -1.664312    -4.038447
O     7.619085    -1.353795    -3.137632
H     7.133716    -0.508464    -3.291337
H     3.690186    -5.034774    -5.305766
O     4.453329    -4.664433    -4.823432
H     4.836635    -5.377996    -4.280199
H    -3.785732     0.034851     4.937016
O    -4.385883     0.497958     5.571028
H    -5.046911    -0.160213     5.860933
H     3.452361    -5.920523    -0.537845
O     4.325489    -5.673944    -0.854968
H     4.403560    -4.712207    -0.708269
H     4.997697    -0.304224    -4.160515
O     4.461360    -1.013775    -4.552354
H     4.134287    -1.598608    -3.836304
H    -1.172076     1.613147    -3.930005
O    -1.823647     2.233903    -4.312847
H    -1.465354     2.572673    -5.156071
H     4.872011    -6.296790    -2.334919
O     5.204031    -6.619661    -3.201649
H     6.021378    -7.102370    -3.016711
H     8.729338    -5.071258    -2.934703
O     8.037458    -5.489790    -2.377617
H     8.070536    -6.446794    -2.483010
H     2.343965     4.741168     0.469008
O     1.763919     4.721439     1.239704
H     1.406264     3.801032     1.314516
H    -4.421573    -2.614619     4.225050
O    -5.315009    -2.272745     4.023940
H    -5.176826    -1.490060     3.450952
H    -5.853516    -3.163759     1.309468
O    -6.317523    -3.721897     1.976020
H    -6.127817    -3.289828     2.828007
H     1.690840     3.469312     6.875755
O     1.068491     3.987611     6.343807
H     0.285947     4.139926     6.916110
H     4.995346    -2.163863     3.610444
O     5.016977    -1.447909     4.277052
H     4.206189    -0.889698     4.122160
H     2.379350    -5.570641     4.821727
O     2.757868    -6.454269     4.558864
H     2.011871    -7.033958     4.382803
H     2.246597    -4.471364    -6.803783
O     2.076464    -4.962165    -5.989779
H     1.813160    -4.272584    -5.332107
H     6.430578    -4.086757    -0.516154
O     7.183010    -4.492767    -0.054189
H     7.689614    -4.913865    -0.776438
H    -1.719518     4.494280     7.717602
O    -0.820657     4.589542     8.103518
H    -0.637785     5.548207     8.131004
H    -5.119390     5.639482    -5.587829
O    -4.484722     4.903538    -5.529812
H    -3.711076     5.091352    -6.114377
H     3.273628    -2.479189    -8.443858
O     3.185408    -3.014600    -7.644387
H     4.062111    -2.992745    -7.215600
H    -0.634105     8.865305    -2.228030
O    -0.514434     9.691133    -1.702019
H     0.250988     9.514438    -1.130559
H     2.063011    -0.907073     5.210143
O     1.489082    -1.433524     5.795974
H     1.584276    -1.091667     6.694351
H     5.199250    -1.988265    -5.698843
O     5.544096    -2.753533    -6.223230
H     5.269018    -3.544621    -5.708213
H     5.684613    -5.214124     4.670074
O     5.162652    -5.130974     5.497149
H     4.440138    -5.761550     5.409632
H    -3.974033     1.156791     7.013015
O    -3.781088     1.629986     7.858142
H    -4.656542     2.015851     8.120487
H    -1.827036     9.649333    -0.748615
O    -2.691619     9.510333    -0.271868
H    -3.295823     10.175387    -0.598293
H    -5.942821     4.734154    -2.924741
O    -6.849998     4.624864    -3.276092
H    -6.760924     3.915401    -3.947699
H     0.080057    -7.034767    -1.164489
O     0.543656    -7.473900    -0.418289
H    -0.135705    -7.669679     0.230081
H    -7.633226     3.837203    -1.963469
O    -7.894552     3.250684    -1.224085
H    -7.753876     2.341325    -1.564119
H     3.970321    -0.895941     6.984962
O     3.980462     0.068237     6.979220
H     4.793070     0.358251     6.548226
H     2.267100     5.822265    -1.159240
O     3.201513     5.526601    -1.045152
H     3.377128     4.990005    -1.841269
H     6.538180    -5.917219     0.653443
O     6.168443    -6.654651     1.184892
H     5.264408    -6.376774     1.412694
H    -3.862659     4.737475     7.798208
O    -3.297446     4.276292     7.136836
H    -3.491346     3.332658     7.245063
H     5.746507    -7.930058     0.113134
O     5.457297    -8.614838    -0.526293
H     4.628745    -8.286554    -0.919536
H    -0.555717     2.044403     7.701807
O    -1.189351     1.983724     6.966714
H    -2.057814     1.841725     7.363136
H    -6.384634    -0.088109     1.064796
O    -6.706764    -0.165597     0.151948
H    -7.625028    -0.437986     0.170194
H    -5.379458    -3.026650    -0.595033
O    -5.126760    -2.326367     0.032804
H    -5.695099    -1.552116    -0.153283
H     4.324987     5.595360     0.339393
O     4.659014     5.691952     1.245078
H     3.965982     6.202529     1.699121
H    -9.049931    -1.695670    -2.255347
O    -8.501969    -1.496946    -1.468655
H    -8.629729    -2.235800    -0.833498
H    -5.524046     3.515092    -5.515309
O    -6.046812     2.809680    -5.095453
H    -5.379601     2.221684    -4.685885
H     3.175418    -0.849168    -5.656966
O     2.318989    -0.967003    -6.122307
H     2.403546    -1.814187    -6.599099
H     8.108292    -1.317853    -6.033054
O     8.115318    -2.183362    -5.579336
H     7.258404    -2.581050    -5.831074
H     7.618185     1.024180    -6.306656
O     7.427903     0.177234    -6.722094
H     6.446417     0.129333    -6.758728
H    -7.869565    -3.655285     0.921426
O    -8.547711    -3.544885     0.237313
H    -8.450950    -4.302813    -0.366567
H    -2.385480     8.766565     1.312774
O    -2.245399     8.175635     2.065611
H    -1.475093     7.619550     1.849038
H    -4.434766     6.459887     3.518749
O    -4.603666     6.889262     2.663366
H    -3.838633     7.473669     2.526437
H     3.404059     3.478368    -3.564776
O     3.253697     4.447396    -3.466153
H     2.289442     4.515587    -3.577117
H    -6.121623    -1.557775    -3.444150
O    -6.205588    -2.138803    -2.661582
H    -6.989142    -1.832061    -2.152213
H     6.467460     1.049629     4.744051
O     6.074277     1.586739     5.448764
H     6.263705     2.506035     5.160599
H     1.359851     1.765364    -5.815409
O     1.164062     1.166656    -5.063052
H     1.527272     0.304521    -5.335954
H    -2.485840     2.961475     10.495688
O    -2.275252     2.054344     10.219616
H    -2.873250     1.857929     9.486621
H     7.624272    -0.494741     3.082503
O     6.875262     0.081619     3.253525
H     6.182108    -0.518777     3.631091
H    -5.675778    -8.015697    -0.723182
O    -4.941010    -8.087683    -0.077069
H    -4.943214    -7.271984     0.447363
H    -5.180868    -0.068102    -4.712752
O    -5.799363    -0.778257    -4.953996
H    -6.636727    -0.334993    -5.151453
H     1.884674    -0.151241    -7.514224
O     1.682860     0.322308    -8.356946
H     2.259868    -0.080874    -9.010995
H     4.864933    -1.345799    -9.307496
O     3.939911    -1.115260    -9.588661
H     3.919694    -1.228401    -10.538267
H     7.557267    -2.571089     4.192453
O     7.703832    -2.604279     3.232835
H     7.209192    -3.393462     2.958481
H     6.708284    -5.888776     2.666708
O     6.771134    -5.216021     3.370111
H     7.647039    -5.303753     3.787374
H    -1.809248     8.967310     3.526017
O    -1.561718     9.268110     4.425196
H    -2.409971     9.400111     4.881959
H    -7.391572     1.622579    -5.241641
O    -7.967854     0.878415    -4.998997
H    -8.868784     1.278624    -4.922369
H     6.919250    -1.041351    -8.407316
O     6.336623    -1.761113    -8.673033
H     6.108013    -2.212873    -7.842343
H    -2.104034     6.301686    -6.931034
O    -2.172984     5.370814    -6.702798
H    -1.768304     5.307027    -5.783820
H     0.004820     3.309432     9.036033
O     0.200143     2.388532     9.288144
H    -0.598513     2.124191     9.793957
H     6.747851    -2.756173    -2.713186
O     6.216376    -3.500702    -2.374214
H     6.683449    -4.311429    -2.623679
H    -4.086626    -3.023651    -4.950323
O    -4.241129    -2.907879    -5.914699
H    -4.786579    -2.113465    -5.968444
H     1.982222     2.180255     8.474307
O     2.645811     2.293925     7.784214
H     3.066879     1.423469     7.666020
H    -6.919902    -5.158478    -1.408027
O    -7.836146    -5.425348    -1.654084
H    -7.969090    -5.020220    -2.535940
H    -3.820865     5.273001     5.715383
O    -3.786630     6.043120     5.126663
H    -2.851939     6.335147     5.222418
H    -7.888051     0.135037    -1.961225
O    -7.399163     0.860579    -2.372620
H    -7.626001     0.850457    -3.326306
H     5.834781     0.145382     0.413516
O     5.613841     0.865047     1.036927
H     6.124274     0.666685     1.848938
H    -6.211889     3.326341     7.409661
O    -6.084600     2.805673     8.236774
H    -6.685870     2.045353     8.146516
H     2.260898    -8.048288    -0.866160
O     2.937810    -8.034685    -1.562448
H     2.711615    -8.746455    -2.177754
H    -2.755649    -3.910465    -6.206713
O    -2.003353    -4.479103    -5.976561
H    -1.726001    -4.190479    -5.078788
H    -5.639518     3.781916     5.324535
O    -6.288581     4.178280     5.941967
H    -6.121412     5.121737     5.933415
H    -1.034345    -7.075742    -3.182945
O    -0.560831    -6.408476    -2.652564
H     0.346783    -6.339394    -3.033341
H     4.445734     2.019790     5.136831
O     3.504437     2.261247     5.017880
H     3.120605     2.275128     5.900000
H     4.115612     4.657248     6.317364
O     4.196713     5.389641     5.701980
H     3.629072     5.152169     4.930212
H     2.768755     3.627639     3.936050
O     2.591776     4.568428     3.773220
H     2.473178     4.670374     2.807057
H     9.390641     0.224678    -1.070068
O     8.585188     0.387408    -0.575527
H     8.407952    -0.432794    -0.085225
H    -2.093218     5.319258     10.670196
O    -2.816499     4.691460     10.899642
H    -3.034054     4.866025     11.815533
H     7.964805    -2.997823     0.318881
O     8.387600    -2.152776     0.576584
H     8.321898    -2.150601     1.538899
H     5.374989     3.671552     3.537848
O     6.031309     3.933469     4.205421
H     5.620275     4.651191     4.708828
H    -4.201844     5.027942     9.803709
O    -4.834953     5.181847     9.082276
H    -5.447849     4.434069     9.078014
H    -7.020484    -3.428260    -3.492047
O    -7.642387    -4.037266    -3.942277
H    -7.122167    -4.478296    -4.645855
H     0.036519     6.123411     10.792631
O    -0.827480     6.457126     10.546423
H    -0.710958     6.890086     9.681441
H     2.587405     1.531037    -4.099245
O     3.466653     1.880787    -3.859475
H     3.786032     1.363251    -3.090493
H    -6.974626    -0.200576     7.223376
O    -7.481890     0.578046     7.505862
H    -8.105050     0.764116     6.802454
H    -2.763031    -9.838991    -0.856954
O    -2.698389    -8.896965    -1.013930
H    -3.603556    -8.529722    -0.771979
H    -10.068579     3.135247    -4.882685
O    -10.186969     2.217205    -4.604975
H    -10.402639     2.297346    -3.655083
H    -2.075184    -3.007496     4.608003
O    -2.951080    -3.445933     4.676400
H    -2.946026    -4.061708     3.918410
H    -0.194472    -7.962780     2.463571
O     0.632291    -7.755102     2.912044
H     1.350028    -8.050392     2.324232
H     6.700073    -2.379922     6.386178
O     7.148093    -3.089327     5.920711
H     6.516691    -3.822816     5.880251
H    -5.277542    -1.987261     6.941583
O    -5.953017    -1.486416     6.459308
H    -5.937691    -1.860885     5.549049
H     0.840489     3.087245    -7.101876
O     1.753391     2.745206    -7.157079
H     1.735379     2.003479    -7.789337
H    -3.940266     8.772601     6.701752
O    -3.941363     8.771935     5.744358
H    -4.066734     7.844523     5.475950
H    -1.818957     10.257256    -3.015336
O    -2.567040     10.227175    -3.632041
H    -2.245828     9.678598    -4.364292
H     9.401200    -4.063464     4.032136
O     9.120557    -4.742870     4.652919
H     8.692036    -4.271837     5.378502
H    -0.749669    -5.950647    -5.856258
O    -0.047176    -6.519455    -5.524618
H     0.789104    -6.058734    -5.741203
H     1.843319     8.295512     0.694448
O     1.538639     8.619733    -0.181732
H     2.352235     8.659907    -0.714050
H     3.499101     2.972451    -6.651805
O     4.325898     2.677450    -6.244088
H     4.080181     2.402685    -5.335839
H     3.743980     7.148536    -1.206838
O     3.950436     8.084980    -1.416152
H     4.317888     8.032341    -2.310530
H     4.389654     0.036902    -7.910554
O     4.767382     0.179283    -7.040781
H     4.587314     1.110920    -6.794141
H     6.030801     1.950919    -0.468422
O     6.596162     2.145275    -1.229789
H     7.420003     1.663657    -1.037721
H     6.665677    -8.411405    -1.631727
O     7.301695    -8.199747    -2.367920
H     7.666511    -9.033829    -2.658653
H    -5.316143    -5.735025    -5.420996
O    -5.932336    -5.060902    -5.733190
H    -5.379764    -4.293128    -5.968131
H     0.693578     7.176998     7.625422
O    -0.207918     7.205347     7.985083
H    -0.763571     7.223285     7.167970
H    -8.906796    -2.778407    -4.105073
O    -9.425525    -1.969119    -3.935586
H    -9.138175    -1.303651    -4.564497
H    -2.424207    -5.949755    -2.158527
O    -3.302096    -5.661360    -2.425824
H    -3.490041    -6.032926    -3.312761
H    -3.001646    -5.850385    -5.423827
O    -3.602501    -6.460573    -4.953247
H    -3.121924    -7.282198    -4.789363
H    -1.378648     3.786093    -6.970487
O    -0.854973     3.025702    -6.694823
H    -1.090350     2.244495    -7.252003
H    -0.209200     0.472773    -8.212161
O    -1.104365     0.709420    -7.927015
H    -1.279717     0.182739    -7.131147
H    -10.420426     4.106868    -2.715426
O    -10.489144     3.327462    -2.148663
H    -9.659146     3.296958    -1.641266
H     4.584580     4.094511     1.734323
O     4.375120     3.173084     2.010799
H     5.089649     2.596858     1.726727
H     6.483437     1.426948    -4.215007
O     6.180072     0.801062    -3.522549
H     6.211801     1.294244    -2.677505
H     9.625583    -2.213224    -0.936635
O     9.902303    -1.996646    -1.835855
H     9.102436    -1.655050    -2.278024
H     9.959351    -3.302005    -3.109231
O     9.691004    -3.951535    -3.786076
H     9.297913    -3.441014    -4.504635
H    -7.717153    -8.528350    -1.687157
O    -6.978440    -7.934754    -1.813904
H    -7.354552    -7.021200    -1.801154
H     4.166689     6.114462    -3.802519
O     4.829782     6.813019    -3.711180
H     5.665113     6.355940    -3.579407
H     0.078798    -8.126986    -5.238028
O     0.100752    -9.110359    -5.109156
H     0.250638    -9.471692    -5.982834
H    -2.351666    -8.633566    -2.739081
O    -2.118151    -8.367407    -3.647993
H    -1.472484    -8.985582    -4.009001
H     2.160267    -10.782169    -3.526987
O     2.115714    -9.827649    -3.499414
H     1.330827    -9.553748    -4.024792
H     6.836706     3.359853    -4.564512
O     6.893313     2.683198    -5.266983
H     6.100066     2.819735    -5.807323
H    -3.571934    -3.711453     7.713437
O    -3.685349    -2.921977     7.185679
H    -3.434558    -3.158716     6.266611
H    -0.649013    -3.312623    -6.732113
O    -0.017164    -2.582635    -6.737253
H    -0.497020    -1.806895    -6.393608
H     0.641429     0.461457     8.756601
O     0.647517    -0.251406     8.113888
H    -0.275182    -0.538569     8.025690
H    -5.972846     7.331639    -4.237594
O    -6.434639     6.689078    -4.801081
H    -6.716344     5.960978    -4.181681
H    -3.998446     9.102185    -3.328423
O    -4.556415     8.296204    -3.351309
H    -4.325429     7.850293    -2.515715
H    -9.708815     5.855390    -4.624361
O    -10.241896     5.051299    -4.460364
H    -11.122878     5.251723    -4.778513
H     2.778042     6.520160     6.162008
O     1.818057     6.618155     6.260263
H     1.473179     5.705556     6.155339
H     4.815459     8.566847     0.111477
O     5.132195     8.563617     1.032752
H     5.539143     7.698747     1.159801
H     4.125420    -7.392243    -4.364149
O     3.366661    -7.674255    -4.906968
H     3.085238    -8.515851    -4.533148
H     0.390520     8.674938     4.263757
O     1.065428     8.028508     4.032949
H     1.292504     7.533502     4.846240
H     5.238379     4.220307    -3.144645
O     6.199809     4.187412    -3.092186
H     6.407564     3.603698    -2.345922
H    -2.581782    -1.534936     7.571995
O    -2.070237    -0.743056     7.794113
H    -2.694858    -0.117089     8.170682
H    -9.025770     7.989689    -4.110423
O    -8.961680     7.413808    -4.873542
H    -8.006451     7.241409    -5.008242
H     3.511999    -8.961629     1.064353
O     2.836374    -8.329735     1.315745
H     3.312326    -7.525949     1.597864
H     3.597493     8.186984     1.856688
O     2.805970     7.624450     1.968904
H     2.360610     7.859384     2.795594
N    -3.028931     8.155915    -5.811967
H    -3.552590     7.933043    -5.019809
H    -3.614539     8.723411    -6.322890
