21

H     7.835691    -1.656903    -4.107693
O     7.629219    -1.323939    -3.201678
H     7.096859    -0.495197    -3.341059
H     9.442180     0.660578    -0.661836
O     8.525355     0.636063    -0.326391
H     8.398809    -0.256030     0.029049
H     7.939885    -3.053688     0.362751
O     8.388065    -2.209849     0.596440
H     8.345476    -2.219361     1.564804
H     5.862245     1.968510    -0.606402
O     6.516816     2.163749    -1.289559
H     7.315291     1.681827    -0.985747
H     9.614175    -2.226167    -0.956359
O     9.889182    -2.032675    -1.870104
H     9.084150    -1.626877    -2.269043
H     9.919916    -3.410009    -3.196047
O     9.722589    -4.054957    -3.901312
H     9.233811    -3.551131    -4.566671
N     11.095501     0.402833    -1.427809
H     10.854739    -0.513989    -1.685189
H     11.229238     0.866046    -2.260020
