30

H    -3.478903     6.413244    -0.527431
O    -3.308816     7.062969    -1.254661
H    -3.202393     7.942828    -0.852412
H    -3.196906     4.902244     1.090460
O    -3.952906     5.298899     0.611195
H    -4.401804     5.791166     1.338741
H    -0.723709     6.305474     5.056847
O    -1.339650     6.878010     5.585211
H    -1.322491     7.760865     5.141754
H    -1.842380     9.678936    -0.768725
O    -2.661085     9.503441    -0.236828
H    -3.224414     10.273859    -0.352260
H    -2.352417     8.707908     1.294561
O    -2.211405     8.071413     2.025199
H    -1.412857     7.560702     1.785152
H    -4.431370     6.377430     3.549121
O    -4.583845     6.816170     2.687304
H    -3.720734     7.243188     2.496057
H    -1.821652     8.966989     3.485863
O    -1.574722     9.278194     4.385564
H    -2.426211     9.374934     4.844130
H    -3.821495     5.295118     5.829725
O    -3.831350     6.076644     5.243596
H    -2.871692     6.336842     5.280512
H    -4.231069     9.026823     6.666350
O    -4.137178     8.830175     5.729843
H    -4.196655     7.852553     5.676916
N    -5.199416     9.646801     2.891544
H    -5.014422     9.774104     3.829307
H    -5.262278     8.680247     2.825508
