21
Coordinates from ORCA-job grain_mol_opt.QMRegion
  H   5.14417984933761     -2.07949929912630     -5.68382763634326
  O   5.50172725225198     -2.84797273962736     -6.19695262076053
  H   5.20007060836466     -3.63362294577781     -5.67700714838110
  H   8.10474714398318     -1.36766830866785     -5.91742584869314
  O   8.17300626969992     -2.28367800796172     -5.58957004773751
  H   7.28783710091708     -2.65187260863875     -5.77914644386229
  H   7.57489499434698      1.14076822867850     -6.14039450772838
  O   7.48297324889410      0.26165930099364     -6.53905942987763
  H   6.50739401990739      0.18032080953762     -6.71426522145381
  H   4.80980034303445     -1.60754438973094     -9.39925352115920
  O   3.95195621220133     -1.10237131348941     -9.53604686552690
  H   3.89868155635506     -0.92365757359918    -10.47680238682427
  H   6.89344541589143     -1.79008754615951     -9.05024222673523
  O   6.14612292287725     -2.42371468433691     -8.98621262356289
  H   6.06222826575138     -2.61158932975874     -8.03532892586705
  H   4.55580027500542     -0.00285431656652     -7.97277768449423
  O   4.84687310029391      0.12498541446205     -7.05425160675599
  H   4.60963530310903      1.05148766544304     -6.83065788267087
  O   8.22615615198886     -0.60489024693551     -9.03244733655060
  H   8.07775670158029     -0.13006588577346     -8.18466291815779
  H   9.07067401727183     -1.05089798516550     -8.91751154241384
