603

H     0.200493     3.030729    -0.685113
O     0.723352     2.363503    -1.179707
H     1.662085     2.491055    -0.905089
H    -0.078001    -1.312312     3.138803
O     0.312793    -0.612201     2.593175
H    -0.162284     0.201716     2.829506
H    -2.399366     2.410755    -0.544117
O    -2.189105     1.939136     0.279302
H    -2.204732     0.991577     0.053046
H    -4.664382     0.544241     2.170784
O    -4.981912    -0.389027     2.182280
H    -4.476848    -0.865859     1.515466
H     0.062070    -0.311342     0.940221
O    -0.135344    -0.072902     0.013576
H     0.205192     0.823465    -0.105246
H    -0.166170    -3.581538     3.762799
O    -0.443336    -2.749579     4.181141
H     0.202737    -2.584253     4.884609
H    -4.887412     2.528900     1.321603
O    -4.248307     2.118346     1.936016
H    -3.405352     2.101015     1.423524
H    -3.248846     3.900846    -2.218198
O    -2.511447     3.303403    -1.987985
H    -2.152668     3.016809    -2.847923
H    -0.128271    -3.806520     0.486913
O     0.211999    -2.989506     0.905312
H    -0.574923    -2.503430     1.218817
H    -2.379653    -1.542337     2.456034
O    -2.192007    -2.007343     1.614387
H    -2.449069    -1.418713     0.885677
H     2.071263    -1.443613    -1.133396
O     2.302862    -1.698321    -0.216541
H     1.513183    -2.125474     0.166725
H    -1.391872     1.820910     1.903386
O    -1.485184     1.422373     2.778816
H    -1.468921     2.133655     3.444831
H     0.206744    -2.702043    -1.584598
O    -0.548683    -2.090160    -1.638843
H    -0.369361    -1.364755    -1.003686
H    -3.438864    -2.924851    -0.407168
O    -2.721925    -3.416531    -0.828958
H    -2.011323    -2.785836    -1.045731
H     2.771492     0.121364     2.925160
O     2.863960    -0.061191     3.887079
H     2.960075     0.829878     4.291343
H    -3.529476     6.380821    -0.545908
O    -3.290924     7.044447    -1.245116
H    -3.148901     7.888738    -0.773467
H     3.901083     0.578867     1.178392
O     2.949781     0.399267     1.291111
H     2.713015    -0.353278     0.712021
H    -5.782458     0.845780    -1.615935
O    -4.871967     1.172696    -1.489217
H    -4.982708     2.000334    -0.976320
H    -1.212950     5.393063     2.206613
O    -1.838158     4.646337     2.088800
H    -1.915768     4.226157     2.950620
H     3.491778     2.759566     0.418553
O     3.244619     2.718651    -0.520854
H     3.576825     1.876212    -0.872153
H     1.489110    -4.695276    -2.268566
O     1.553493    -3.919069    -1.694048
H     2.348463    -3.457434    -2.043682
H    -0.922740    -0.082109    -2.559425
O    -0.288624     0.570711    -2.882881
H    -0.027836     1.151869    -2.145100
H     1.696443    -4.686745    -0.196887
O     1.803454    -5.325488     0.544314
H     1.339080    -6.135625     0.247113
H    -1.228204    -3.262021    -2.896342
O    -1.055121    -3.944642    -3.558043
H    -0.928996    -4.792176    -3.090110
H    -2.782709     3.301378     4.698017
O    -1.801531     3.299023     4.664180
H    -1.508441     2.895297     5.499407
H     0.960073     5.027738     4.071958
O     0.013973     5.259862     4.124539
H    -0.457535     4.456005     4.381224
H    -1.733647    -4.650632    -0.390210
O    -0.968864    -5.192671    -0.106678
H    -1.316620    -5.879323     0.471698
H    -3.917545     5.836009    -2.601792
O    -4.268639     5.002647    -2.933069
H    -4.113228     4.969141    -3.901196
H    -2.434674    -3.692270     1.919067
O    -2.454040    -4.597230     2.292843
H    -1.514218    -4.836039     2.433427
H    -4.697552    -2.975148    -2.915564
O    -3.845370    -3.207767    -3.322332
H    -3.514417    -4.001827    -2.857808
H     0.340051     1.368217     4.606133
O     0.839953     2.132160     4.272266
H     0.892093     2.787744     4.982010
H    -4.658221    -5.167370    -1.591018
O    -5.360253    -4.814804    -1.017003
H    -5.147201    -5.170256    -0.133207
H     2.323885    -6.477571    -4.060202
O     1.986694    -6.150239    -3.206226
H     2.421090    -6.724853    -2.543708
H     0.464884    -3.374535    -4.021823
O     1.267862    -3.007505    -4.444396
H     0.948693    -2.634284    -5.292255
H     1.963473    -1.762513     2.971526
O     2.114202    -2.693383     2.750341
H     1.429119    -2.900533     2.080557
H    -3.016800    -1.804536    -3.224514
O    -2.594374    -0.918285    -3.158354
H    -3.249724    -0.271983    -3.476876
H    -3.191532     4.973819     1.075234
O    -3.973053     5.348255     0.621167
H    -4.388213     5.905002     1.328184
H     0.874033     2.248445     2.582678
O     0.975415     2.245089     1.611533
H     1.702308     1.621694     1.447268
H     0.189605     5.656775    -0.761620
O     0.711229     6.319386    -1.269583
H     0.853497     7.118300    -0.712626
H     0.342119     7.030978     2.589742
O    -0.020092     6.652057     1.771694
H     0.643576     5.981483     1.509267
H    -2.480751     0.210334     3.330973
O    -2.703096    -0.603980     3.835307
H    -1.941916    -0.646676     4.455613
H    -0.891391     0.540945     6.015373
O    -0.614476     0.020251     5.242735
H     0.100743    -0.579978     5.530850
H     0.704751    -4.999393     1.959896
O     0.158888    -5.110248     2.761464
H     0.306738    -6.028856     3.037663
H    -2.123573    -8.089343     0.424123
O    -1.801025    -7.603337     1.210394
H    -2.587128    -7.291621     1.666472
H    -0.379790     6.866246    -2.327031
O    -1.126182     7.287141    -2.825665
H    -1.916132     7.160019    -2.262185
H    -1.114730     4.307880     0.568708
O    -0.741883     4.370528    -0.327309
H    -1.448389     4.129300    -0.960044
H    -4.411278     2.742298     3.499277
O    -4.410353     2.911227     4.464141
H    -4.493441     2.027491     4.871804
H     1.949787    -3.682083     4.133091
O     1.777261    -4.137274     4.986214
H     2.353667    -3.666162     5.611390
H     4.685212    -3.197637     0.825338
O     4.524588    -3.122283    -0.141375
H     3.666074    -2.644259    -0.224561
H    -2.724799    -0.746476    -1.364721
O    -3.052502    -0.477904    -0.490007
H    -3.852608     0.048701    -0.696171
H    -1.618255    -0.754421    -4.644212
O    -1.111069    -0.537657    -5.447787
H    -0.401193     0.058329    -5.161572
H     1.792833    -1.711720    -3.390782
O     1.885212    -0.965714    -2.766798
H     1.107868    -0.388381    -2.896911
H     3.660365    -3.127078     2.536569
O     4.618925    -3.357472     2.463413
H     4.672850    -4.318281     2.583941
H     3.416358    -6.130875     3.101511
O     3.776622    -5.926669     2.203565
H     3.040789    -5.579552     1.659201
H    -3.344987     1.617133    -4.187338
O    -4.190286     1.146778    -3.997520
H    -4.407681     1.290933    -3.040578
H    -5.083566     4.147980     0.060817
O    -5.522524     3.282265    -0.043859
H    -6.452824     3.402255    -0.325488
H     6.732326    -1.183771    -1.372907
O     5.958671    -1.034791    -0.822942
H     5.540185    -1.902858    -0.625905
H     4.590893    -3.168090    -2.485381
O     3.723187    -2.996192    -2.901452
H     3.726690    -3.613862    -3.658462
H     4.385483    -2.524424     5.618700
O     4.112587    -3.186434     6.295074
H     4.491239    -4.035007     5.958003
H    -0.755258     6.329126     5.073261
O    -1.351715     6.904552     5.612237
H    -1.364977     7.782145     5.171915
H     4.696502    -0.137195    -1.476777
O     3.929516     0.405713    -1.739942
H     3.236829    -0.194456    -2.070169
H    -0.743249     4.528285    -4.042308
O    -1.525679     5.071941    -4.249893
H    -1.374101     5.937909    -3.825977
H     0.658495     3.206190    -2.664844
O     0.665776     3.584139    -3.572944
H     0.713103     2.821380    -4.159345
H    -5.388165    -5.195231     1.774339
O    -4.691826    -5.789780     1.418182
H    -3.851088    -5.374471     1.689611
H     7.879098    -1.689037    -4.046363
O     7.621406    -1.377265    -3.146256
H     7.134581    -0.533107    -3.301213
H     3.697788    -5.067510    -5.308455
O     4.460432    -4.695065    -4.826963
H     4.844543    -5.406861    -4.281931
H    -3.786223     0.011416     4.923606
O    -4.387166     0.474631     5.556902
H    -5.047819    -0.183621     5.847225
H     3.459744    -5.943933    -0.539841
O     4.332941    -5.697005    -0.856573
H     4.409884    -4.734905    -0.710979
H     4.998522    -0.333443    -4.171627
O     4.463005    -1.044026    -4.562703
H     4.136652    -1.628197    -3.845615
H    -1.174294     1.576766    -3.945811
O    -1.824502     2.198064    -4.330892
H    -1.466592     2.530716    -5.176624
H     4.880633    -6.321690    -2.335175
O     5.213064    -6.646091    -3.201225
H     6.031226    -7.127002    -3.015306
H     8.736313    -5.092298    -2.936399
O     8.044571    -5.510801    -2.379140
H     8.079374    -6.467956    -2.482419
H     2.336716     4.716634     0.446663
O     1.757257     4.697984     1.217621
H     1.399969     3.777428     1.294450
H    -4.419372    -2.639943     4.215967
O    -5.313344    -2.299554     4.014235
H    -5.176040    -1.517819     3.439644
H    -5.850174    -3.196439     1.301012
O    -6.313436    -3.754028     1.968605
H    -6.124509    -3.319862     2.819734
H     1.683482     3.456576     6.855419
O     1.061674     3.975269     6.322697
H     0.278685     4.126169     6.894522
H     4.965008    -2.151161     3.559849
O     4.967531    -1.486181     4.280155
H     4.170765    -0.913959     4.117225
H     2.365638    -5.594912     4.810266
O     2.762616    -6.477770     4.552930
H     2.021026    -7.062219     4.374889
H     2.253546    -4.508819    -6.808029
O     2.084058    -4.998285    -5.993127
H     1.819557    -4.307857    -5.336745
H     6.435551    -4.106298    -0.519421
O     7.188354    -4.511122    -0.057049
H     7.695763    -4.932238    -0.778630
H    -1.726511     4.477632     7.696583
O    -0.828144     4.574654     8.083190
H    -0.646491     5.533581     8.107890
H    -5.119271     5.702122    -5.600436
O    -4.511971     4.938443    -5.621780
H    -3.754530     5.153360    -6.187320
H     3.278686    -2.518410    -8.451598
O     3.190757    -3.052214    -7.651085
H     4.067262    -3.028624    -7.221909
H    -0.660487     8.829108    -2.278035
O    -0.537235     9.657014    -1.758304
H     0.224977     9.481607    -1.181737
H     2.044189    -0.824010     5.279337
O     1.497809    -1.375590     5.866505
H     1.497512    -0.951838     6.742220
H     5.202639    -2.019777    -5.706774
O     5.548539    -2.785411    -6.229991
H     5.274596    -3.575969    -5.713428
H     5.715844    -5.452747     4.594842
O     5.184847    -5.512574     5.423870
H     4.406015    -6.041099     5.184590
H    -3.976465     1.136530     6.997354
O    -3.784355     1.610988     7.842030
H    -4.660313     1.996577     8.103183
H    -1.851520     9.615298    -0.744402
O    -2.711936     9.488682    -0.269955
H    -3.323039     10.117544    -0.657325
H    -5.949885     4.694654    -2.944026
O    -6.858580     4.576274    -3.288434
H    -6.768241     3.874634    -3.966314
H     0.089097    -7.064207    -1.164725
O     0.553057    -7.501636    -0.417749
H    -0.126339    -7.696699     0.230859
H    -7.639283     3.795590    -1.980230
O    -7.901059     3.207834    -1.240935
H    -7.758055     2.299511    -1.581507
H     4.655797    -0.352761     7.575577
O     4.244265     0.295077     6.982695
H     4.993621     0.760250     6.572560
H     2.256737     5.795653    -1.183935
O     3.192345     5.502981    -1.070305
H     3.368814     4.963458    -1.863945
H     6.546330    -5.933926     0.653735
O     6.177374    -6.670749     1.186769
H     5.272800    -6.393529     1.413041
H    -3.870225     4.718774     7.775812
O    -3.303848     4.256656     7.116229
H    -3.497449     3.313137     7.225391
H     5.757158    -7.948800     0.116339
O     5.468802    -8.635452    -0.521448
H     4.640152    -8.308959    -0.915997
H    -0.559497     2.031438     7.684092
O    -1.192773     1.965730     6.949145
H    -2.061168     1.824695     7.346021
H    -6.385902    -0.121285     1.050794
O    -6.706448    -0.203466     0.137860
H    -7.625234    -0.474059     0.155765
H    -5.376351    -3.061960    -0.604045
O    -5.124128    -2.360849     0.022915
H    -5.693649    -1.587383    -0.163655
H     4.315549     5.575306     0.314792
O     4.649768     5.674526     1.220016
H     3.955596     6.184048     1.673560
H    -9.047984    -1.739440    -2.267016
O    -8.500119    -1.539092    -1.480718
H    -8.627481    -2.276570    -0.844004
H    -5.526710     3.479342    -5.534537
O    -6.044251     2.768316    -5.120691
H    -5.377796     2.182172    -4.707628
H     3.177244    -0.883502    -5.667353
O     2.321436    -1.002527    -6.133701
H     2.406715    -1.851044    -6.608013
H     8.110940    -1.346208    -6.041928
O     8.119066    -2.210860    -5.586727
H     7.262643    -2.610161    -5.837542
H     7.617998     0.994541    -6.319547
O     7.428888     0.146990    -6.734265
H     6.447520     0.097244    -6.770314
H    -7.865362    -3.691532     0.913707
O    -8.543939    -3.583777     0.229594
H    -8.445729    -4.342362    -0.373145
H    -2.408266     8.735103     1.293057
O    -2.257620     8.145689     2.045425
H    -1.487693     7.592504     1.821904
H    -4.445175     6.431727     3.494240
O    -4.615601     6.858897     2.638351
H    -3.852007     7.444734     2.499224
H     3.398685     3.448501    -3.584482
O     3.245479     4.417707    -3.490200
H     2.280569     4.482539    -3.597578
H    -6.119776    -1.599496    -3.455614
O    -6.203027    -2.179817    -2.672465
H    -6.986717    -1.872812    -2.163288
H     6.485966     1.067017     4.735457
O     6.102287     1.645596     5.411876
H     6.279760     2.553757     5.077943
H     1.358754     1.727944    -5.831837
O     1.163818     1.131232    -5.078416
H     1.527419     0.268453    -5.348988
H    -2.492065     2.949792     10.476345
O    -2.281312     2.041813     10.203149
H    -2.877707     1.843826     9.469217
H     7.607419    -0.515719     3.095330
O     6.853187     0.057159     3.256774
H     6.169864    -0.539898     3.655973
H    -5.665808    -8.051854    -0.722856
O    -4.931052    -8.121799    -0.076492
H    -4.934360    -7.305056     0.446403
H    -5.181127    -0.111396    -4.726610
O    -5.798411    -0.822669    -4.967423
H    -6.636436    -0.380488    -5.164860
H     1.886455    -0.190671    -7.526537
O     1.684966     0.282135    -8.369957
H     2.261615    -0.122523    -9.023434
H     4.868491    -1.384424    -9.316883
O     3.943448    -1.154892    -9.599024
H     3.923317    -1.271855    -10.548169
H     7.555339    -2.572689     4.201451
O     7.700252    -2.611733     3.242478
H     7.205206    -3.400827     2.969931
H     6.721407    -5.901010     2.666131
O     6.778944    -5.228495     3.370184
H     7.658865    -5.302484     3.785347
H    -1.821933     8.943023     3.497405
O    -1.574335     9.246666     4.396143
H    -2.423170     9.378510     4.851728
H    -7.393377     1.576523    -5.259693
O    -7.968468     0.832230    -5.015701
H    -8.870035     1.232028    -4.939116
H     6.922302    -1.076139    -8.416720
O     6.340270    -1.796777    -8.681353
H     6.112154    -2.247493    -7.849904
H    -1.678240     6.249892    -7.025998
O    -2.076549     5.424492    -6.753458
H    -1.828044     5.292285    -5.789976
H     0.002450     3.294658     9.017378
O     0.194203     2.373877     9.272196
H    -0.606588     2.112871     9.776374
H     6.751660    -2.779622    -2.718879
O     6.220890    -3.524387    -2.379414
H     6.689560    -4.334831    -2.626738
H    -4.082405    -3.065721    -4.958718
O    -4.236614    -2.951856    -5.923402
H    -4.783655    -2.158575    -5.978486
H     1.991809     2.149715     8.452937
O     2.641582     2.291686     7.755810
H     3.130278     1.451105     7.645305
H    -6.913548    -5.197590    -1.413077
O    -7.829237    -5.466535    -1.659013
H    -7.962655    -5.062796    -2.541453
H    -3.828885     5.249882     5.692932
O    -3.796129     6.019251     5.103346
H    -2.861969     6.313031     5.197536
H    -7.888817     0.092994    -1.976901
O    -7.398928     0.816967    -2.389650
H    -7.627134     0.807054    -3.342898
H     5.834541     0.125835     0.404255
O     5.614190     0.846177     1.026899
H     6.117082     0.642880     1.842769
H    -6.216835     3.304069     7.390062
O    -6.089276     2.784762     8.218126
H    -6.689770     2.023742     8.128772
H     2.270671    -8.074223    -0.864578
O     2.948519    -8.061307    -1.559993
H     2.723469    -8.774213    -2.174387
H    -2.749940    -3.953246    -6.213116
O    -1.996500    -4.520076    -5.982110
H    -1.720075    -4.229716    -5.084572
H    -5.645845     3.756461     5.303685
O    -6.294606     4.152603     5.921592
H    -6.130660     5.096596     5.909094
H    -1.024871    -7.110483    -3.183451
O    -0.552205    -6.441709    -2.654247
H     0.355319    -6.372037    -3.034931
H     4.446860     2.029927     5.101853
O     3.501920     2.256365     4.992445
H     3.122240     2.266547     5.876466
H     4.107664     4.646395     6.296215
O     4.191176     5.375649     5.677449
H     3.619763     5.138612     4.908082
H     2.761252     3.612559     3.916374
O     2.585153     4.553254     3.750826
H     2.465082     4.651982     2.784532
H     9.390594     0.206365    -1.080054
O     8.583085     0.368924    -0.588894
H     8.407775    -0.448564    -0.093387
H    -2.101684     5.308284     10.646635
O    -2.823797     4.679695     10.877710
H    -3.042574     4.856960     11.792760
H     7.967734    -3.013950     0.317790
O     8.389033    -2.167901     0.574163
H     8.322283    -2.162855     1.536416
H     5.364900     3.677007     3.502366
O     6.029819     3.956973     4.154541
H     5.608497     4.655286     4.677322
H    -4.210030     5.012014     9.780900
O    -4.843512     5.164299     9.059523
H    -5.455319     4.415636     9.055923
H    -7.016161    -3.471231    -3.500312
O    -7.636891    -4.082331    -3.949484
H    -7.115961    -4.523718    -4.652203
H     0.026580     6.115962     10.767412
O    -0.837985     6.448285     10.521352
H    -0.722685     6.879117     9.655057
H     2.586124     1.498830    -4.114102
O     3.464773     1.850894    -3.875567
H     3.784894     1.335099    -3.105380
H    -6.975763    -0.223980     7.209308
O    -7.484264     0.554130     7.490995
H    -8.107042     0.739095     6.786939
H    -2.750878    -9.871616    -0.852912
O    -2.687366    -8.929841    -1.011814
H    -3.592987    -8.563170    -0.770394
H    -10.071595     3.085897    -4.904494
O    -10.189198     2.168169    -4.624861
H    -10.404595     2.251210    -3.674949
H    -2.073389    -3.028807     4.599838
O    -2.948961    -3.468728     4.669400
H    -2.942576    -4.085583     3.912385
H    -0.185079    -7.985386     2.465259
O     0.642089    -7.777839     2.912984
H     1.359303    -8.072358     2.324351
H     7.070080    -2.549325     6.704825
O     7.337563    -3.151538     5.995593
H     6.666500    -3.842216     6.014070
H    -5.276069    -2.008718     6.931175
O    -5.952714    -1.510172     6.448167
H    -5.936333    -1.885752     5.538323
H     0.833366     3.040198    -7.121938
O     1.750917     2.709301    -7.178794
H     1.736672     1.962233    -7.805147
H    -3.954985     8.750363     6.673032
O    -3.953867     8.749483     5.715659
H    -4.078905     7.822194     5.446845
H    -2.060115     10.317910    -2.736023
O    -2.961707     10.500412    -3.037516
H    -2.889689     11.134802    -3.750002
H     9.409469    -4.076277     4.022919
O     9.126210    -4.753312     4.644731
H     8.692248    -4.273151     5.365437
H    -0.741166    -5.990062    -5.858522
O    -0.037927    -6.557420    -5.525959
H     0.797789    -6.095919    -5.742940
H     1.824523     8.274017     0.662339
O     1.521218     8.597011    -0.214826
H     2.335758     8.634980    -0.745499
H     3.495497     2.935451    -6.669884
O     4.323089     2.644454    -6.261140
H     4.077926     2.369865    -5.352461
H     3.731705     7.124868    -1.233705
O     3.937897     8.060703    -1.446405
H     4.307069     8.005092    -2.339770
H     4.390943    -0.000407    -7.922795
O     4.768402     0.144604    -7.053336
H     4.587050     1.076293    -6.808513
H     6.027970     1.929945    -0.483490
O     6.592733     2.123725    -1.245431
H     7.417147     1.643421    -1.052430
H     6.676977    -8.432758    -1.627532
O     7.312697    -8.221832    -2.364146
H     7.678887    -9.055987    -2.652925
H    -5.308019    -5.779487    -5.424765
O    -5.925009    -5.106955    -5.738772
H    -5.373554    -4.338649    -5.974566
H     0.681907     7.164163     7.598979
O    -0.219484     7.191887     7.958815
H    -0.775185     7.207371     7.141459
H    -8.902850    -2.824838    -4.115349
O    -9.423103    -2.016367    -3.946971
H    -9.136733    -1.350836    -4.576275
H    -2.416453    -5.984462    -2.161230
O    -3.294657    -5.697833    -2.429341
H    -3.482018    -6.071195    -3.315570
H    -2.993305    -5.891929    -5.427025
O    -3.593445    -6.502108    -4.955616
H    -3.111785    -7.322712    -4.789838
H    -1.393553     3.735323    -6.989322
O    -0.853365     2.979134    -6.719525
H    -1.090797     2.194622    -7.270097
H    -0.208336     0.426965    -8.226240
O    -1.104293     0.662231    -7.942590
H    -1.279525     0.138002    -7.145062
H    -10.425475     4.061123    -2.738975
O    -10.493259     3.281909    -2.171646
H    -9.663620     3.254384    -1.663204
H     4.578466     4.076552     1.710212
O     4.369792     3.156131     1.990705
H     5.084269     2.578298     1.709386
H     6.482429     1.399873    -4.228788
O     6.179122     0.775000    -3.535683
H     6.210189     1.269191    -2.691116
H     9.628041    -2.229904    -0.941738
O     9.904490    -2.015430    -1.841540
H     9.104513    -1.675105    -2.284448
H     9.963817    -3.322210    -3.112937
O     9.697073    -3.973028    -3.789207
H     9.303266    -3.464172    -4.508530
H    -7.706538    -8.568804    -1.686264
O    -6.968374    -7.974755    -1.814077
H    -7.345490    -7.061496    -1.803051
H     4.158754     6.083361    -3.825676
O     4.820110     6.784347    -3.740447
H     5.656129     6.330018    -3.603083
H     0.090123    -8.164150    -5.236175
O     0.113639    -9.147269    -5.105628
H     0.263970    -9.509874    -5.978698
H    -2.340455    -8.669080    -2.737019
O    -2.106836    -8.404509    -3.646406
H    -1.460249    -9.022607    -4.005825
H     2.174943    -10.813266    -3.520130
O     2.129223    -9.858751    -3.494289
H     1.343988    -9.586826    -4.020202
H     6.832963     3.332559    -4.582168
O     6.890951     2.655303    -5.283957
H     6.097305     2.789161    -5.824227
H    -3.569610    -3.729859     7.705785
O    -3.682654    -2.940745     7.177455
H    -3.431655    -3.178418     6.258557
H    -0.643660    -3.353880    -6.739122
O    -0.013097    -2.622724    -6.746058
H    -0.494350    -1.847450    -6.403235
H     0.637228     0.456310     8.737894
O     0.653698    -0.269321     8.109298
H    -0.268679    -0.554029     8.011285
H    -5.836028     7.375940    -4.253044
O    -6.339326     6.757988    -4.814745
H    -6.626246     6.026349    -4.224374
H    -4.279924     9.109375    -3.263210
O    -4.816005     8.313403    -3.157624
H    -4.407538     7.832771    -2.419449
H    -9.713954     5.807126    -4.648738
O    -10.247628     5.002489    -4.486012
H    -11.128182     5.204036    -4.804524
H     2.767789     6.508526     6.136483
O     1.807912     6.604489     6.234849
H     1.464314     5.690920     6.132088
H     4.802527     8.545936     0.081367
O     5.120029     8.546010     1.002256
H     5.526650     7.681442     1.132514
H     4.135869    -7.422256    -4.362554
O     3.377844    -7.706345    -4.905316
H     3.097207    -8.547526    -4.529961
H     0.376274     8.655314     4.233541
O     1.054128     8.011127     4.004602
H     1.280239     7.516885     4.818497
H     5.232951     4.192519    -3.164347
O     6.194399     4.162086    -3.111747
H     6.403145     3.579790    -2.364513
H    -2.579814    -1.551128     7.561146
O    -2.068400    -0.759415     7.783960
H    -2.694206    -0.132242     8.156636
H    -9.029527     7.946138    -4.146812
O    -8.966650     7.362450    -4.904314
H    -8.009606     7.198137    -5.039688
H     3.523954    -8.982141     1.066488
O     2.847463    -8.351565     1.318796
H     3.321896    -7.545873     1.597830
H     3.583109     8.169491     1.826551
O     2.792265     7.606381     1.938406
H     2.346479     7.841183     2.765011
N     5.605254    -1.946656     8.091996
H     4.972111    -2.506624     7.564340
H     5.548538    -2.263240     8.997549
