27
Coordinates from ORCA-job grain_mol_opt.QMRegion
  H   7.80358065605312     -1.71303328053661     -4.10751001694245
  O   7.63128976392260     -1.33794347354802     -3.20526378668547
  H   7.20445543193054     -0.46893629918563     -3.34766914791021
  H   8.11519364915921     -1.53107897750467     -6.14201636779158
  O   8.04986330986967     -2.35017362587389     -5.60714436986560
  H   7.16348560190132     -2.68645972145384     -5.86427475406508
  H   8.11435140980226      0.74807720451420     -7.02064772905815
  O   7.61211044646701     -0.08593393382541     -7.07836299296344
  H   6.66034144566792      0.13938943110544     -6.97901742779093
  H   3.36789415813430      2.91838977800119     -6.64206608263425
  O   4.21101897442713      2.65366628877418     -6.23461854843611
  H   3.95719728688992      2.35865920554501     -5.33116509828995
  H   4.48085298794037      0.04073523279461     -7.93443309692327
  O   4.87083328616132      0.16010455580696     -7.06178068335085
  H   4.63838741001953      1.07600128473561     -6.80223218616098
  H   6.37837896695065      1.59957827267148     -4.21189630115029
  O   6.18731162613486      0.89171920649770     -3.56852466047517
  H   6.15172218264533      1.34837028392653     -2.70362931581117
  H   6.55192353115656      3.71177613408718     -4.31740050636484
  O   6.71021805493355      3.16375309130827     -5.12096899855078
  H   5.90632271553603      3.27896438520257     -5.65810122076667
  H   5.07854919775985      4.32711355462379     -2.82815025354480
  O   6.04252586743857      4.37625541261469     -2.75855816689963
  H   6.26996430047012      3.69533041436024     -2.10022656079117
  O   8.92431689215435      2.34733363675566     -6.60928692830974
  H   9.70821872439815      2.31110385945530     -6.05348855679456
  H   8.24465778875044      2.78483165464556     -6.06007697472346
