603

H     0.199883     3.020996    -0.680406
O     0.724865     2.354074    -1.173264
H     1.663177     2.485401    -0.898641
H    -0.069941    -1.323382     3.143675
O     0.319318    -0.621749     2.599261
H    -0.159307     0.190690     2.834139
H    -2.398254     2.392831    -0.542748
O    -2.189261     1.920974     0.281078
H    -2.199214     0.973919     0.054590
H    -4.661858     0.519411     2.170921
O    -4.976524    -0.415517     2.181149
H    -4.466185    -0.889117     1.516304
H     0.069995    -0.321363     0.944789
O    -0.129455    -0.083450     0.018596
H     0.210410     0.813259    -0.101103
H    -0.142735    -3.594615     3.767285
O    -0.426100    -2.766358     4.188308
H     0.218986    -2.594273     4.890874
H    -4.888760     2.504035     1.320554
O    -4.250390     2.092445     1.935303
H    -3.406167     2.079415     1.424624
H    -3.250033     3.880959    -2.217336
O    -2.511985     3.284561    -1.985938
H    -2.150766     2.999965    -2.845608
H    -0.109170    -3.817917     0.491641
O     0.227553    -2.999906     0.911076
H    -0.560772    -2.515471     1.222399
H    -2.369792    -1.559277     2.458314
O    -2.181994    -2.024646     1.616478
H    -2.436652    -1.435353     0.887491
H     2.084477    -1.448156    -1.127023
O     2.315171    -1.701234    -0.209359
H     1.527080    -2.132150     0.172578
H    -1.391239     1.806711     1.906488
O    -1.485775     1.406941     2.781249
H    -1.472442     2.117981     3.447854
H     0.223719    -2.712409    -1.580405
O    -0.534477    -2.103558    -1.632989
H    -0.356147    -1.376612    -0.999401
H    -3.421466    -2.946725    -0.400835
O    -2.705621    -3.434451    -0.827575
H    -1.995013    -2.802934    -1.043569
H     2.774407     0.120418     2.930970
O     2.871789    -0.063617     3.892548
H     2.960933     0.828779     4.298935
H    -3.540130     6.359922    -0.545006
O    -3.302554     7.023906    -1.243912
H    -3.163560     7.868910    -0.772464
H     3.904565     0.580894     1.185599
O     2.954264     0.396317     1.299973
H     2.720271    -0.355808     0.718998
H    -5.775333     0.818167    -1.618986
O    -4.866005     1.147145    -1.488579
H    -4.979906     1.975453    -0.977328
H    -1.223774     5.379011     2.209497
O    -1.846391     4.630009     2.091176
H    -1.923850     4.210325     2.953216
H     3.491341     2.759946     0.427264
O     3.243916     2.717471    -0.512091
H     3.580006     1.876693    -0.863602
H     1.512917    -4.701686    -2.262169
O     1.573936    -3.924748    -1.688078
H     2.368227    -3.461326    -2.037265
H    -0.912152    -0.095672    -2.555955
O    -0.279747     0.559165    -2.878432
H    -0.021257     1.141367    -2.140655
H     1.718025    -4.692897    -0.190713
O     1.824536    -5.330224     0.551756
H     1.364827    -6.142816     0.253583
H    -1.207836    -3.276995    -2.892758
O    -1.032174    -3.958737    -3.554451
H    -0.903919    -4.806405    -3.087168
H    -2.789991     3.283164     4.699410
O    -1.808871     3.282001     4.666175
H    -1.515904     2.880521     5.502561
H     0.948461     5.019647     4.077865
O     0.001572     5.248790     4.129094
H    -0.468091     4.443892     4.385576
H    -1.712802    -4.667960    -0.387679
O    -0.946399    -5.204411    -0.099303
H    -1.292348    -5.897490     0.472664
H    -3.924445     5.813844    -2.601566
O    -4.272311     4.979183    -2.933067
H    -4.116040     4.946469    -3.901182
H    -2.407322    -3.705645     1.924007
O    -2.419135    -4.606965     2.306798
H    -1.479020    -4.849485     2.440427
H    -4.678027    -2.999761    -2.916552
O    -3.824315    -3.230198    -3.320594
H    -3.492910    -4.025189    -2.857371
H     0.335118     1.359218     4.611212
O     0.838460     2.121407     4.278552
H     0.885817     2.779290     4.986628
H    -4.559568    -5.250591    -1.584726
O    -5.287799    -4.929992    -1.014932
H    -5.016157    -5.256511    -0.130232
H     2.354838    -6.481799    -4.052424
O     2.015427    -6.155086    -3.198933
H     2.450667    -6.728838    -2.536054
H     0.486792    -3.384024    -4.016903
O     1.288856    -3.013620    -4.438015
H     0.969783    -2.642165    -5.286744
H     1.971238    -1.763570     2.975142
O     2.128375    -2.693898     2.756884
H     1.444519    -2.908297     2.088374
H    -2.999774    -1.824261    -3.223389
O    -2.581197    -0.936483    -3.154332
H    -3.237242    -0.292326    -3.476162
H    -3.199772     4.953888     1.076346
O    -3.982495     5.324906     0.621612
H    -4.399618     5.881333     1.327924
H     0.872359     2.240475     2.588844
O     0.973523     2.236636     1.617670
H     1.703314     1.616710     1.453426
H     0.181613     5.646975    -0.756245
O     0.701774     6.310858    -1.263722
H     0.841329     7.110387    -0.706786
H     0.326034     7.021451     2.594896
O    -0.034300     6.640742     1.776785
H     0.632253     5.972855     1.514946
H    -2.479172     0.192252     3.331700
O    -2.699901    -0.623805     3.834226
H    -1.940051    -0.661603     4.457410
H    -0.897975     0.530772     6.018110
O    -0.622703     0.012406     5.243263
H     0.093265    -0.588504     5.529845
H     0.727888    -5.007776     1.966426
O     0.184961    -5.119619     2.770378
H     0.330938    -6.040757     3.040993
H    -2.095716    -8.105925     0.425713
O    -1.772620    -7.616254     1.209318
H    -2.559731    -7.313690     1.670040
H    -0.389655     6.854617    -2.322652
O    -1.136771     7.272977    -2.822196
H    -1.926937     7.143905    -2.259544
H    -1.120527     4.294229     0.572193
O    -0.746859     4.356984    -0.323457
H    -1.452122     4.114609    -0.957067
H    -4.415921     2.718649     3.498518
O    -4.416516     2.887534     4.463216
H    -4.497579     2.003969     4.871272
H     2.034332    -3.595083     4.234918
O     1.969561    -4.068417     5.087367
H     2.475407    -3.532066     5.719358
H     4.701036    -3.195499     0.833415
O     4.541269    -3.118823    -0.133126
H     3.681407    -2.643644    -0.216888
H    -2.714708    -0.765601    -1.362395
O    -3.049842    -0.504355    -0.487830
H    -3.846002     0.027588    -0.696973
H    -1.602998    -0.769958    -4.641082
O    -1.096261    -0.551375    -5.444135
H    -0.388093     0.046616    -5.157735
H     1.809214    -1.717083    -3.384439
O     1.898079    -0.971252    -2.759550
H     1.119951    -0.395528    -2.891618
H     3.673926    -3.128431     2.543784
O     4.633525    -3.354529     2.471295
H     4.690941    -4.314716     2.596765
H     3.444275    -6.129083     3.111585
O     3.800373    -5.925505     2.212141
H     3.062570    -5.581537     1.668820
H    -3.337245     1.596420    -4.187047
O    -4.181055     1.122976    -3.997556
H    -4.399983     1.267601    -3.041417
H    -5.087965     4.121857     0.059961
O    -5.524842     3.254875    -0.044639
H    -6.454755     3.373185    -0.328721
H     6.744241    -1.174381    -1.363137
O     5.970663    -1.027636    -0.812357
H     5.554118    -1.896868    -0.616459
H     4.610466    -3.165364    -2.476508
O     3.742418    -2.995953    -2.893025
H     3.748692    -3.613514    -3.650235
H     4.439528    -2.302453     5.616963
O     4.096211    -2.770205     6.408639
H     4.434423    -3.674003     6.326447
H    -0.772131     6.316683     5.076710
O    -1.371306     6.889870     5.614794
H    -1.386387     7.767693     5.174768
H     4.706058    -0.133866    -1.467846
O     3.937233     0.406636    -1.730564
H     3.247123    -0.195455    -2.062608
H    -0.744540     4.515764    -4.038490
O    -1.528745     5.056704    -4.246229
H    -1.379889     5.923389    -3.822728
H     0.659521     3.197484    -2.659495
O     0.666386     3.575356    -3.567417
H     0.717027     2.812984    -4.154051
H    -5.184670    -5.247477     1.874672
O    -4.502631    -5.834908     1.487767
H    -3.666812    -5.377576     1.737603
H     7.895689    -1.676153    -4.033892
O     7.635805    -1.364893    -3.134103
H     7.147100    -0.522034    -3.290031
H     3.725945    -5.067277    -5.300120
O     4.486580    -4.692272    -4.817477
H     4.872649    -5.403125    -4.272527
H    -3.784755    -0.010772     4.923515
O    -4.388995     0.450360     5.554719
H    -5.046571    -0.210094     5.846522
H     3.485870    -5.945087    -0.531129
O     4.358095    -5.694757    -0.847622
H     4.431792    -4.732504    -0.702363
H     5.011404    -0.329031    -4.162070
O     4.478027    -1.041034    -4.553475
H     4.153144    -1.626571    -3.836924
H    -1.167047     1.562828    -3.942905
O    -1.819007     2.182002    -4.328213
H    -1.461342     2.515965    -5.173705
H     4.909440    -6.318259    -2.325673
O     5.244059    -6.640829    -3.191442
H     6.063029    -7.120118    -3.004605
H     8.762042    -5.077374    -2.922467
O     8.071059    -5.497528    -2.365543
H     8.108350    -6.454653    -2.468814
H     2.330192     4.713222     0.454222
O     1.749853     4.692467     1.224542
H     1.394949     3.771230     1.300460
H    -4.409246    -2.665871     4.214655
O    -5.304914    -2.333370     4.003984
H    -5.167990    -1.545820     3.436308
H    -5.831225    -3.273111     1.344620
O    -6.271902    -3.807034     2.061977
H    -6.030076    -3.322027     2.883072
H     1.674022     3.451433     6.862616
O     1.050027     3.965545     6.328582
H     0.266294     4.116327     6.899786
H     5.007458    -2.173390     3.611946
O     5.024906    -1.456019     4.277107
H     4.211916    -0.901738     4.120234
H     2.404105    -5.589607     4.826590
O     2.786838    -6.471710     4.565183
H     2.043806    -7.055453     4.390087
H     2.281681    -4.512652    -6.801313
O     2.112650    -5.002505    -5.986527
H     1.845800    -4.313020    -5.330409
H     6.455921    -4.098015    -0.508944
O     7.209626    -4.499532    -0.045210
H     7.719004    -4.920032    -0.765882
H    -1.741503     4.463055     7.698443
O    -0.843340     4.562814     8.084842
H    -0.664894     5.522455     8.111058
H    -5.122405     5.676298    -5.601470
O    -4.512784     4.914389    -5.621747
H    -3.755541     5.131442    -6.186787
H     3.302418    -2.519220    -8.443909
O     3.214977    -3.052666    -7.643072
H     4.091208    -3.027177    -7.213460
H    -0.675900     8.816743    -2.273870
O    -0.555971     9.644684    -1.753571
H     0.206279     9.471745    -1.176352
H     2.067462    -0.926402     5.205988
O     1.494276    -1.453981     5.791528
H     1.587203    -1.110644     6.689636
H     5.222061    -2.014988    -5.697125
O     5.570695    -2.779654    -6.219740
H     5.298582    -3.571049    -5.703506
H     5.708320    -5.218750     4.678352
O     5.184687    -5.135956     5.504410
H     4.465410    -5.770290     5.417581
H    -3.981202     1.114430     6.997109
O    -3.791408     1.589183     7.841641
H    -4.668682     1.972562     8.102174
H    -1.871394     9.599206    -0.741632
O    -2.732072     9.469572    -0.268415
H    -3.344393     10.097214    -0.655870
H    -5.952648     4.666714    -2.946345
O    -6.860892     4.544789    -3.290692
H    -6.767792     3.844167    -3.969238
H     0.118834    -7.074934    -1.160045
O     0.583147    -7.509405    -0.411655
H    -0.096563    -7.708672     0.235306
H    -7.640660     3.763300    -1.983630
O    -7.900841     3.173810    -1.244941
H    -7.755161     2.266635    -1.587472
H     3.972478    -0.903727     6.983084
O     3.978060     0.060456     6.974774
H     4.790333     0.353220     6.545031
H     2.248804     5.791931    -1.176250
O     3.184856     5.501340    -1.061125
H     3.364001     4.963046    -1.855008
H     6.569992    -5.925708     0.664330
O     6.202701    -6.663737     1.196569
H     5.297234    -6.389446     1.422826
H    -3.885758     4.696757     7.776043
O    -3.317521     4.236258     7.116665
H    -3.508083     3.292217     7.226235
H     5.787697    -7.943118     0.126581
O     5.502376    -8.630030    -0.512242
H     4.672687    -8.306429    -0.906825
H    -0.567338     2.018401     7.688516
O    -1.199727     1.952507     6.952688
H    -2.068099     1.808387     7.348514
H    -6.376563    -0.151685     1.044657
O    -6.693014    -0.256179     0.132817
H    -7.619883    -0.496101     0.150832
H    -5.369919    -3.100958    -0.634273
O    -5.180308    -2.425585     0.044519
H    -5.722637    -1.634241    -0.166395
H     4.306867     5.576964     0.325649
O     4.639256     5.677133     1.231457
H     3.943011     6.185227     1.683507
H    -9.031200    -1.770829    -2.280336
O    -8.487717    -1.568343    -1.490595
H    -8.624733    -2.302900    -0.852196
H    -5.523436     3.452507    -5.536263
O    -6.039025     2.739804    -5.122765
H    -5.371112     2.155671    -4.709562
H     3.193234    -0.884463    -5.659839
O     2.337990    -1.006288    -6.126461
H     2.426675    -1.854273    -6.601255
H     8.128803    -1.332546    -6.029028
O     8.138739    -2.196990    -5.573467
H     7.284050    -2.599101    -5.825622
H     7.629146     1.007004    -6.307312
O     7.442868     0.158697    -6.721744
H     6.461733     0.106143    -6.759155
H    -7.982051    -3.531913     0.848288
O    -8.719816    -3.595380     0.225393
H    -8.433727    -4.255864    -0.453340
H    -2.427839     8.717446     1.295001
O    -2.276513     8.128075     2.047311
H    -1.504362     7.577660     1.824801
H    -4.460566     6.408145     3.493717
O    -4.631071     6.834174     2.637278
H    -3.869416     7.422833     2.499252
H     3.399780     3.448294    -3.576004
O     3.243634     4.416957    -3.481325
H     2.278794     4.479304    -3.590205
H    -6.102351    -1.631743    -3.456424
O    -6.184720    -2.208740    -2.670322
H    -6.971606    -1.900975    -2.167209
H     6.463948     1.048774     4.741270
O     6.067341     1.585545     5.444297
H     6.253464     2.505110     5.154852
H     1.367260     1.721441    -5.825755
O     1.173225     1.124014    -5.072501
H     1.539888     0.262460    -5.343018
H    -2.504800     2.931861     10.478487
O    -2.289917     2.025222     10.203968
H    -2.886486     1.824987     9.470920
H     7.629578    -0.493548     3.084285
O     6.877638     0.079725     3.252829
H     6.186834    -0.523001     3.630949
H    -5.759291    -8.221030    -0.217398
O    -4.859080    -8.306855     0.163449
H    -4.742585    -7.468843     0.637226
H    -5.168543    -0.138345    -4.727170
O    -5.784003    -0.851731    -4.966215
H    -6.622584    -0.411813    -5.166659
H     1.902556    -0.195561    -7.520094
O     1.700405     0.276875    -8.363498
H     2.278817    -0.125896    -9.016617
H     4.889708    -1.380208    -9.307459
O     3.964214    -1.153449    -9.590330
H     3.945426    -1.270306    -10.539537
H     7.570080    -2.568353     4.198119
O     7.717789    -2.602629     3.238704
H     7.227227    -3.394718     2.965386
H     6.737406    -5.892765     2.677791
O     6.796441    -5.218155     3.379724
H     7.672120    -5.301487     3.798486
H    -1.844481     8.927118     3.499879
O    -1.598581     9.231050     4.398942
H    -2.448197     9.361051     4.853588
H    -7.384588     1.543761    -5.263861
O    -7.957584     0.798219    -5.018812
H    -8.860665     1.195336    -4.944510
H     6.941924    -1.066000    -8.405131
O     6.361924    -1.788088    -8.670235
H     6.134635    -2.239834    -7.839169
H    -1.681775     6.234297    -7.023302
O    -2.077735     5.407744    -6.750814
H    -1.829805     5.276587    -5.787182
H    -0.013950     3.288257     9.021072
O     0.184902     2.368500     9.274740
H    -0.613020     2.101792     9.780471
H     6.770271    -2.770552    -2.708034
O     6.241274    -3.516588    -2.368599
H     6.712440    -4.325856    -2.615314
H    -4.060222    -3.088526    -4.958809
O    -4.213763    -2.974901    -5.923430
H    -4.763264    -2.183417    -5.979383
H     1.969127     2.166882     8.463864
O     2.632961     2.281841     7.774212
H     3.058040     1.413035     7.658527
H    -6.900752    -5.272990    -1.489311
O    -7.866366    -5.377654    -1.658384
H    -7.972641    -5.006717    -2.562457
H    -3.843265     5.228124     5.693499
O    -3.812156     5.996863     5.103038
H    -2.879210     6.294208     5.198655
H    -7.879284     0.060079    -1.983414
O    -7.390178     0.785828    -2.393892
H    -7.617126     0.775869    -3.347813
H     5.840635     0.133267     0.411843
O     5.615716     0.853232     1.033468
H     6.125986     0.658683     1.846584
H    -6.228326     3.275148     7.387193
O    -6.099607     2.755964     8.215132
H    -6.698133     1.993543     8.125876
H     2.303955    -8.078646    -0.856359
O     2.981096    -8.062717    -1.552315
H     2.759267    -8.777045    -2.166340
H    -2.723851    -3.972263    -6.211691
O    -1.969696    -4.537428    -5.979072
H    -1.694511    -4.245808    -5.081666
H    -5.655499     3.729668     5.301523
O    -6.306910     4.123123     5.918107
H    -6.145472     5.067578     5.907053
H    -0.993138    -7.124591    -3.178402
O    -0.523188    -6.453511    -2.649524
H     0.384612    -6.382031    -3.029692
H     4.437498     2.010678     5.129913
O     3.495208     2.247433     5.009132
H     3.110240     2.261802     5.890770
H     4.094384     4.649022     6.305155
O     4.173784     5.380129     5.688031
H     3.607610     5.139072     4.916317
H     2.755187     3.608735     3.924184
O     2.574764     4.548437     3.759102
H     2.456393     4.647957     2.792669
H     9.398014     0.225361    -1.067172
O     8.590834     0.385490    -0.574594
H     8.416818    -0.434301    -0.082420
H    -2.122864     5.291553     10.649064
O    -2.843530     4.660801     10.878713
H    -3.063378     4.836366     11.793874
H     7.984433    -3.000587     0.325992
O     8.402823    -2.152997     0.582561
H     8.336236    -2.149523     1.544826
H     5.361149     3.663607     3.529137
O     6.015929     3.929813     4.196408
H     5.601062     4.646329     4.698510
H    -4.228949     4.989625     9.780496
O    -4.861547     5.139186     9.057708
H    -5.471597     4.389136     9.054388
H    -6.994734    -3.506200    -3.499996
O    -7.613785    -4.118343    -3.948291
H    -7.092866    -4.558317    -4.650805
H     0.003439     6.105519     10.772526
O    -0.861858     6.434525     10.524561
H    -0.746250     6.866747     9.659072
H     2.593482     1.495956    -4.107052
O     3.470548     1.850899    -3.867021
H     3.791685     1.335898    -3.096850
H    -6.976617    -0.256099     7.206059
O    -7.486843     0.521194     7.485934
H    -8.110428     0.703724     6.782012
H    -2.720620    -9.888022    -0.848209
O    -2.659440    -8.947078    -1.014375
H    -3.560710    -8.582537    -0.777946
H    -10.067661     3.045127    -4.912215
O    -10.182197     2.127230    -4.631885
H    -10.399581     2.210246    -3.682471
H    -2.062252    -3.043502     4.604014
O    -2.937739    -3.483696     4.669962
H    -2.923190    -4.105535     3.917209
H    -0.157125    -7.997880     2.469935
O     0.668216    -7.783427     2.917767
H     1.388003    -8.078559     2.332346
H     6.709250    -2.377083     6.390792
O     7.160790    -3.085080     5.926598
H     6.532919    -3.821633     5.886987
H    -5.270834    -2.036712     6.929283
O    -5.947485    -1.540412     6.443605
H    -5.930683    -1.917893     5.535900
H     0.839498     3.032371    -7.116488
O     1.757901     2.703721    -7.171729
H     1.746801     1.957052    -7.798667
H    -3.980881     8.728631     6.672745
O    -3.978080     8.727215     5.715381
H    -4.100724     7.799634     5.446754
H    -2.079702     10.301420    -2.733602
O    -2.981598     10.480643    -3.036081
H    -2.911094     11.115830    -3.748013
H     9.420782    -4.053082     4.043155
O     9.141875    -4.732594     4.664592
H     8.710748    -4.262113     5.388981
H    -0.709330    -6.002949    -5.855205
O    -0.005128    -6.567901    -5.520664
H     0.829647    -6.104644    -5.737467
H     1.807326     8.268561     0.669747
O     1.503840     8.590271    -0.207804
H     2.318901     8.631241    -0.737508
H     3.501400     2.935764    -6.661588
O     4.329341     2.647231    -6.251842
H     4.084066     2.371842    -5.343529
H     3.719945     7.125181    -1.224017
O     3.923291     8.061650    -1.436320
H     4.293646     8.007481    -2.329303
H     4.406977     0.002186    -7.913734
O     4.782491     0.148420    -7.043626
H     4.598463     1.079702    -6.799413
H     6.029997     1.938047    -0.473212
O     6.595310     2.133501    -1.234380
H     7.421047     1.655843    -1.040333
H     6.711395    -8.423470    -1.616376
O     7.347336    -8.210209    -2.352145
H     7.716832    -9.043106    -2.640397
H    -5.275310    -5.805978    -5.428952
O    -5.895903    -5.134910    -5.738108
H    -5.348051    -4.364729    -5.975802
H     0.659783     7.156214     7.604147
O    -0.242217     7.180660     7.962731
H    -0.796947     7.195198     7.144776
H    -8.882454    -2.864551    -4.120083
O    -9.403426    -2.056262    -3.950982
H    -9.120735    -1.390902    -4.582103
H    -2.391464    -6.003032    -2.157008
O    -3.267397    -5.713809    -2.429766
H    -3.452401    -6.090907    -3.315088
H    -2.963192    -5.912260    -5.424836
O    -3.561362    -6.524774    -4.953441
H    -3.075705    -7.343295    -4.788384
H    -1.389444     3.720766    -6.986217
O    -0.847909     2.965958    -6.715182
H    -1.081834     2.180963    -7.266628
H    -0.193158     0.416068    -8.222124
O    -1.089989     0.648762    -7.939042
H    -1.264597     0.123558    -7.142127
H    -10.427417     4.019252    -2.746531
O    -10.492572     3.239851    -2.179082
H    -9.663602     3.216120    -1.669648
H     4.571726     4.079595     1.723620
O     4.365282     3.157641     2.000451
H     5.083185     2.584051     1.719590
H     6.490019     1.408879    -4.217817
O     6.187628     0.783275    -3.524840
H     6.216784     1.277825    -2.680449
H     9.643426    -2.211304    -0.928745
O     9.920298    -1.994917    -1.827965
H     9.119458    -1.657973    -2.271816
H     9.984779    -3.302746    -3.098917
O     9.719868    -3.954699    -3.774751
H     9.325740    -3.447315    -4.494930
H    -7.733651    -7.379086     0.486482
O    -7.504288    -7.844214    -0.338767
H    -7.752229    -7.195556    -1.019472
H     4.152426     6.085518    -3.816080
O     4.811478     6.788442    -3.729369
H     5.648850     6.336645    -3.591905
H     0.127733    -8.175007    -5.231041
O     0.153424    -9.157808    -5.099726
H     0.305961    -9.520854    -5.972249
H    -2.305084    -8.686894    -2.734385
O    -2.070444    -8.420619    -3.643109
H    -1.422589    -9.037744    -4.002234
H     2.218536    -10.817497    -3.511150
O     2.170302    -9.863042    -3.486729
H     1.384449    -9.594065    -4.013117
H     6.835410     3.342870    -4.570354
O     6.895878     2.665442    -5.271733
H     6.102719     2.797220    -5.813213
H    -3.559889    -3.750013     7.707618
O    -3.676323    -2.962695     7.177265
H    -3.421256    -3.200593     6.259845
H    -0.618740    -3.366731    -6.735399
O     0.009483    -2.633615    -6.741025
H    -0.474697    -1.859694    -6.399490
H     0.635512     0.442299     8.747829
O     0.645183    -0.271378     8.106032
H    -0.276111    -0.562832     8.017746
H    -5.845092     7.348412    -4.255156
O    -6.345820     6.728640    -4.817169
H    -6.631759     5.996764    -4.226885
H    -4.295606     9.086179    -3.263501
O    -4.829107     8.288376    -3.158493
H    -4.420115     7.809405    -2.419609
H    -9.718639     5.767445    -4.654783
O    -10.250031     4.961194    -4.492499
H    -11.130658     5.160055    -4.812566
H     2.749169     6.505680     6.144348
O     1.788697     6.599453     6.241295
H     1.447716     5.685346     6.137616
H     4.784918     8.549499     0.092312
O     5.101126     8.550031     1.013652
H     5.510619     7.686848     1.143905
H     4.170019    -7.421023    -4.353521
O     3.412771    -7.706708    -4.896510
H     3.134694    -8.549184    -4.522120
H     0.354021     8.645927     4.238498
O     1.033289     8.003027     4.010148
H     1.260658     7.510170     4.824557
H     5.231131     4.198115    -3.154018
O     6.192587     4.170620    -3.100366
H     6.402432     3.588879    -2.353033
H    -2.578165    -1.570421     7.563237
O    -2.070308    -0.775678     7.783107
H    -2.697324    -0.151832     8.159239
H    -9.040689     7.909243    -4.152709
O    -8.975379     7.324666    -4.909310
H    -8.017776     7.163946    -5.044399
H     3.555391    -8.983152     1.077709
O     2.877264    -8.352679     1.325927
H     3.350098    -7.546957     1.607566
H     3.564777     8.169060     1.835867
O     2.775618     7.603328     1.946920
H     2.328131     7.837070     2.772920
N    -8.179904    -6.136112     1.951917
H    -7.524733    -5.446066     2.131490
H    -8.915551    -5.629773     1.584743
