603

H     0.191152     3.028631    -0.683989
O     0.716646     2.361736    -1.176175
H     1.654421     2.491709    -0.900735
H    -0.082966    -1.307586     3.147361
O     0.312545    -0.607445     2.605736
H    -0.170569     0.205172     2.832959
H    -2.413007     2.404868    -0.539540
O    -2.201271     1.936512     0.284997
H    -2.218914     0.988855     0.060629
H    -4.672981     0.548512     2.184132
O    -4.986609    -0.389090     2.188191
H    -4.480436    -0.859396     1.518059
H     0.059612    -0.310683     0.949211
O    -0.133644    -0.076466     0.020967
H     0.197058     0.823428    -0.097970
H    -0.158920    -3.577928     3.776235
O    -0.439232    -2.748550     4.197158
H     0.206723    -2.577004     4.898689
H    -4.893998     2.474639     1.399861
O    -4.204784     2.099330     1.993623
H    -3.400834     2.054004     1.420572
H    -3.258495     3.886419    -2.216683
O    -2.513648     3.297489    -1.988836
H    -2.159310     3.007368    -2.849261
H    -0.125131    -3.806957     0.501972
O     0.213717    -2.989401     0.920497
H    -0.574843    -2.502965     1.229872
H    -2.384932    -1.542241     2.463219
O    -2.190763    -2.008621     1.623998
H    -2.452887    -1.424156     0.893265
H     2.071066    -1.443400    -1.120837
O     2.302837    -1.696234    -0.203350
H     1.513232    -2.123677     0.180072
H    -1.420469     1.813971     1.903530
O    -1.482092     1.417817     2.783247
H    -1.477552     2.132646     3.444597
H     0.209276    -2.706683    -1.571096
O    -0.547082    -2.096396    -1.627878
H    -0.370241    -1.368975    -0.994507
H    -3.438389    -2.933905    -0.397510
O    -2.718391    -3.425091    -0.815340
H    -2.010393    -2.792371    -1.034264
H     2.762952     0.130485     2.933707
O     2.862926    -0.050093     3.895816
H     2.951019     0.843600     4.298760
H    -3.519967     6.371227    -0.570280
O    -3.300247     7.045119    -1.264861
H    -3.157637     7.886511    -0.788798
H     3.894340     0.586369     1.186410
O     2.944121     0.403441     1.302287
H     2.707630    -0.349007     0.722466
H    -5.783991     0.826330    -1.616317
O    -4.872718     1.151525    -1.493865
H    -4.984554     1.978598    -0.974896
H    -1.129380     5.454435     2.145017
O    -1.762402     4.705011     2.060575
H    -1.622882     4.171347     2.851688
H     3.483022     2.764229     0.424878
O     3.238150     2.722512    -0.514889
H     3.570612     1.879648    -0.864965
H     1.495509    -4.698833    -2.249987
O     1.558849    -3.921671    -1.676671
H     2.352602    -3.458966    -2.027407
H    -0.925437    -0.089666    -2.554082
O    -0.289286     0.561858    -2.876416
H    -0.032862     1.145560    -2.139304
H     1.701116    -4.686066    -0.178055
O     1.808647    -5.322997     0.564695
H     1.346041    -6.134578     0.268599
H    -1.224254    -3.271154    -2.884041
O    -1.047642    -3.955230    -3.543386
H    -0.921755    -4.801281    -3.072946
H    -2.703930     3.263175     4.776862
O    -1.725442     3.247264     4.702893
H    -1.407146     2.809418     5.516207
H     0.945800     5.037074     4.070597
O    -0.000427     5.269423     4.126160
H    -0.471435     4.463750     4.379713
H    -1.728145    -4.655267    -0.374501
O    -0.962845    -5.195830    -0.088760
H    -1.310760    -5.882164     0.489807
H    -3.925604     5.822642    -2.614964
O    -4.276312     4.987680    -2.940884
H    -4.123241     4.949613    -3.908998
H    -2.433194    -3.693350     1.931516
O    -2.450535    -4.597357     2.308419
H    -1.510710    -4.834157     2.449647
H    -4.693361    -2.989483    -2.906772
O    -3.840089    -3.222669    -3.311368
H    -3.509227    -4.014844    -2.843978
H     0.328434     1.376457     4.608702
O     0.836323     2.136820     4.278254
H     0.880907     2.796163     4.984596
H    -4.650648    -5.181662    -1.577345
O    -5.354483    -4.830169    -1.005112
H    -5.141248    -5.181449    -0.119954
H     2.335326    -6.483189    -4.037635
O     1.997231    -6.154614    -3.184537
H     2.431603    -6.727432    -2.520496
H     0.470968    -3.383153    -4.006689
O     1.273752    -3.015909    -4.429661
H     0.954037    -2.644836    -5.278306
H     1.956329    -1.751695     2.980762
O     2.114567    -2.682481     2.764893
H     1.429866    -2.897898     2.097052
H    -3.014344    -1.816411    -3.216958
O    -2.592188    -0.930000    -3.153982
H    -3.249680    -0.284471    -3.470694
H    -3.116284     4.942050     0.990529
O    -3.926233     5.287436     0.558412
H    -4.285674     5.836960     1.295839
H     0.863093     2.252394     2.585858
O     0.969422     2.251130     1.615421
H     1.695012     1.626118     1.452513
H     0.176542     5.652949    -0.767102
O     0.699224     6.316663    -1.273207
H     0.837672     7.116190    -0.716880
H     0.325595     7.037068     2.583233
O    -0.041572     6.655053     1.769184
H     0.623183     5.986587     1.503404
H    -2.493989     0.212695     3.333195
O    -2.712316    -0.601273     3.841053
H    -1.950148    -0.639160     4.460238
H    -0.905421     0.550881     6.021891
O    -0.629620     0.034028     5.247020
H     0.084274    -0.569309     5.533029
H     0.709192    -4.994799     1.979855
O     0.167106    -5.104973     2.784332
H     0.312410    -6.025434     3.056442
H    -2.112940    -8.093768     0.446434
O    -1.792071    -7.605836     1.232275
H    -2.579389    -7.294045     1.686245
H    -0.390015     6.859421    -2.334867
O    -1.134678     7.280627    -2.835518
H    -1.927111     7.151590    -2.275334
H    -1.119289     4.300196     0.565639
O    -0.751552     4.370113    -0.331600
H    -1.457908     4.121577    -0.962812
H    -4.405124     2.777361     3.621037
O    -4.392512     2.875284     4.602640
H    -4.460120     1.950795     4.929518
H     2.018624    -3.580341     4.244272
O     1.955499    -4.052186     5.097883
H     2.460913    -3.514067     5.728485
H     4.685744    -3.190530     0.841914
O     4.526538    -3.115513    -0.124783
H     3.666704    -2.639768    -0.209488
H    -2.726235    -0.754858    -1.357381
O    -3.055295    -0.486580    -0.483444
H    -3.855480     0.041000    -0.692265
H    -1.617887    -0.767584    -4.637433
O    -1.108154    -0.552723    -5.440281
H    -0.400751     0.045711    -5.153546
H     1.795055    -1.716573    -3.377872
O     1.886455    -0.969278    -2.755299
H     1.107402    -0.393949    -2.885967
H     3.658905    -3.118422     2.552241
O     4.618462    -3.346260     2.480666
H     4.673971    -4.306374     2.607472
H     3.425898    -6.117965     3.126157
O     3.782387    -5.917060     2.226342
H     3.044932    -5.572914     1.682268
H    -3.350054     1.602149    -4.183496
O    -4.192901     1.128519    -3.995157
H    -4.413988     1.272165    -3.037122
H    -5.085734     4.059790    -0.002389
O    -5.542088     3.194817    -0.041865
H    -6.478127     3.307862    -0.308268
H     6.731194    -1.176900    -1.359090
O     5.958732    -1.027759    -0.807465
H     5.540175    -1.895862    -0.610239
H     4.595154    -3.166863    -2.467930
O     3.727628    -2.996859    -2.884997
H     3.732265    -3.616071    -3.640735
H     4.426727    -2.287496     5.623506
O     4.084452    -2.752635     6.417232
H     4.419876    -3.657544     6.335827
H    -0.767042     6.337141     5.065638
O    -1.363164     6.917019     5.602955
H    -1.378478     7.792344     5.157659
H     4.694044    -0.134031    -1.465230
O     3.926519     0.407587    -1.728993
H     3.234768    -0.193747    -2.059538
H    -0.750702     4.516786    -4.044077
O    -1.532374     5.060230    -4.254915
H    -1.382057     5.926863    -3.832666
H     0.651124     3.200768    -2.662966
O     0.660631     3.577399    -3.571609
H     0.707796     2.813505    -4.156555
H    -5.383874    -5.202049     1.786781
O    -4.686055    -5.797666     1.434700
H    -3.846609    -5.379204     1.704510
H     7.881809    -1.684794    -4.028909
O     7.623041    -1.371357    -3.129593
H     7.134850    -0.528382    -3.286982
H     3.707345    -5.072595    -5.287645
O     4.469414    -4.698433    -4.806397
H     4.853772    -5.408734    -4.259681
H    -3.793701     0.010404     4.925543
O    -4.392166     0.469618     5.565405
H    -5.055708    -0.188164     5.849855
H     3.467082    -5.940746    -0.516970
O     4.340122    -5.692909    -0.833519
H     4.414717    -4.730288    -0.690826
H     4.998859    -0.334315    -4.159114
O     4.465554    -1.046939    -4.549339
H     4.138852    -1.630036    -3.831496
H    -1.176552     1.565353    -3.942374
O    -1.826534     2.185482    -4.329253
H    -1.468791     2.516268    -5.175518
H     4.889850    -6.319798    -2.310494
O     5.224133    -6.644844    -3.175590
H     6.042557    -7.124543    -2.987745
H     8.744256    -5.084979    -2.910959
O     8.053191    -5.503330    -2.352849
H     8.088936    -6.460648    -2.454550
H     2.323464     4.721369     0.448337
O     1.743152     4.703926     1.218713
H     1.388454     3.782037     1.296872
H    -4.424128    -2.636647     4.222374
O    -5.317991    -2.296694     4.021417
H    -5.181763    -1.517982     3.440578
H    -5.848693    -3.205999     1.308447
O    -6.310597    -3.763548     1.977884
H    -6.125244    -3.324852     2.827219
H     1.670431     3.471647     6.858101
O     1.046676     3.987246     6.325066
H     0.263013     4.136797     6.895753
H     4.993858    -2.163647     3.618478
O     5.013039    -1.444856     4.282179
H     4.200637    -0.889645     4.124162
H     2.387195    -5.573812     4.839921
O     2.768821    -6.457398     4.581424
H     2.024752    -7.039798     4.406031
H     2.263383    -4.520230    -6.789319
O     2.094818    -5.008184    -5.973336
H     1.827814    -4.316819    -5.318800
H     6.439558    -4.097981    -0.498376
O     7.193098    -4.499560    -0.034321
H     7.701501    -4.922036    -0.754468
H    -1.743426     4.487080     7.694450
O    -0.846502     4.589324     8.081661
H    -0.666564     5.548630     8.103671
H    -5.128209     5.679520    -5.609021
O    -4.518529     4.917780    -5.629288
H    -3.761282     5.133646    -6.194445
H     3.286744    -2.530997    -8.436109
O     3.199346    -3.063709    -7.634827
H     4.075333    -3.037543    -7.204908
H    -0.677934     8.821420    -2.287078
O    -0.557502     9.650184    -1.767092
H     0.206559     9.477896    -1.192104
H     2.056401    -0.909646     5.209131
O     1.484756    -1.435823     5.797579
H     1.578371    -1.089577     6.694299
H     5.207720    -2.023687    -5.690669
O     5.555862    -2.789705    -6.211841
H     5.282226    -3.579762    -5.694290
H     5.691311    -5.207408     4.690823
O     5.168466    -5.122831     5.517188
H     4.447686    -5.755614     5.431083
H    -3.988694     1.139608     6.998437
O    -3.803560     1.622050     7.841437
H    -4.680746     2.003254     8.096943
H    -1.868507     9.608686    -0.753481
O    -2.729474     9.485817    -0.277720
H    -3.340168     10.108702    -0.675657
H    -5.961369     4.673595    -2.944104
O    -6.868136     4.559291    -3.293384
H    -6.778356     3.853209    -3.966123
H     0.099137    -7.067979    -1.142633
O     0.563200    -7.503049    -0.394235
H    -0.116534    -7.697981     0.254043
H    -7.646359     3.776828    -1.962244
O    -7.923424     3.187812    -1.231919
H    -7.763181     2.282166    -1.567711
H     3.961142    -0.885196     6.986618
O     3.969157     0.079035     6.978460
H     4.780778     0.369481     6.545889
H     2.244674     5.795503    -1.184946
O     3.180899     5.505202    -1.069698
H     3.358771     4.964169    -1.862127
H     6.551506    -5.923525     0.678042
O     6.183628    -6.659945     1.212125
H     5.278342    -6.384095     1.437641
H    -3.887546     4.716750     7.779643
O    -3.321609     4.256223     7.118199
H    -3.509622     3.310942     7.226033
H     5.766664    -7.940793     0.144575
O     5.480561    -8.628899    -0.492655
H     4.651104    -8.305034    -0.887781
H    -0.571195     2.039841     7.690386
O    -1.204163     1.977549     6.955028
H    -2.072553     1.831831     7.349029
H    -6.388678    -0.117370     1.047967
O    -6.706401    -0.227763     0.137084
H    -7.629349    -0.482620     0.159553
H    -5.375798    -3.072587    -0.597498
O    -5.122398    -2.374649     0.031907
H    -5.693534    -1.600089    -0.150037
H     4.302711     5.580791     0.316205
O     4.635960     5.683387     1.221528
H     3.939828     6.192075     1.672843
H    -9.046548    -1.763459    -2.265014
O    -8.499799    -1.560708    -1.478783
H    -8.626370    -2.295944    -0.839847
H    -5.531924     3.456253    -5.537285
O    -6.048642     2.744883    -5.123623
H    -5.382214     2.161287    -4.706879
H     3.180089    -0.890895    -5.655347
O     2.325023    -1.012110    -6.122339
H     2.411521    -1.861688    -6.594415
H     8.115006    -1.345554    -6.024571
O     8.124235    -2.209241    -5.567541
H     7.268660    -2.610506    -5.818402
H     7.618159     0.994100    -6.307335
O     7.431146     0.145223    -6.720260
H     6.449858     0.093656    -6.757464
H    -7.862156    -3.705406     0.921219
O    -8.542358    -3.602408     0.238064
H    -8.440442    -4.360663    -0.364353
H    -2.439351     8.725678     1.286080
O    -2.304236     8.127603     2.034875
H    -1.524249     7.583549     1.820891
H    -4.269380     6.367053     3.498156
O    -4.547896     6.800433     2.665011
H    -3.809551     7.413532     2.483743
H     3.392725     3.446056    -3.580085
O     3.237841     4.415185    -3.487237
H     2.272802     4.477616    -3.595958
H    -6.117140    -1.618177    -3.450067
O    -6.200970    -2.199719    -2.667839
H    -6.983230    -1.890704    -2.157395
H     6.454908     1.058741     4.741074
O     6.059953     1.597729     5.443411
H     6.246775     2.516307     5.151438
H     1.357969     1.717656    -5.826372
O     1.164274     1.122524    -5.071455
H     1.527845     0.259257    -5.340313
H    -2.512351     2.966476     10.474778
O    -2.298604     2.058851     10.203108
H    -2.894398     1.856517     9.469964
H     7.618198    -0.488325     3.087029
O     6.867413     0.086530     3.255293
H     6.175453    -0.514711     3.633970
H    -5.654197    -8.064771    -0.704253
O    -4.920024    -8.132325    -0.056863
H    -4.925137    -7.314299     0.464066
H    -5.180455    -0.131361    -4.722022
O    -5.795396    -0.844350    -4.964317
H    -6.634250    -0.403795    -5.162157
H     1.889709    -0.203698    -7.516909
O     1.688827     0.267236    -8.361500
H     2.266406    -0.138273    -9.013593
H     4.875689    -1.396061    -9.302351
O     3.950546    -1.168582    -9.585647
H     3.931165    -1.287592    -10.534550
H     7.556426    -2.560541     4.204973
O     7.704514    -2.597007     3.245713
H     7.212340    -3.388559     2.973701
H     6.719155    -5.886551     2.691190
O     6.779613    -5.210965     3.392134
H     7.655304    -5.294769     3.810489
H    -1.852477     8.942035     3.480891
O    -1.603178     9.249913     4.377620
H    -2.450586     9.385389     4.834171
H    -7.394757     1.551062    -5.261642
O    -7.969644     0.805478    -5.021080
H    -8.871123     1.204787    -4.942442
H     6.927995    -1.082316    -8.400839
O     6.347771    -1.804715    -8.664604
H     6.119397    -2.254015    -7.832445
H    -1.684638     6.232083    -7.032169
O    -2.082034     5.406376    -6.759315
H    -1.835094     5.275781    -5.795225
H    -0.017892     3.314441     9.018554
O     0.179328     2.395262     9.275137
H    -0.619077     2.130349     9.780502
H     6.755433    -2.775115    -2.700626
O     6.225964    -3.519862    -2.359233
H     6.695478    -4.330234    -2.605152
H    -4.076177    -3.084327    -4.948256
O    -4.229636    -2.972870    -5.913357
H    -4.777978    -2.180462    -5.970137
H     1.963004     2.188543     8.462784
O     2.626332     2.303037     7.772717
H     3.051019     1.433876     7.657201
H    -6.906421    -5.214799    -1.401553
O    -7.821136    -5.486497    -1.648241
H    -7.954346    -5.083672    -2.531248
H    -3.745353     5.288150     5.796133
O    -3.735881     6.049115     5.189287
H    -2.806105     6.367092     5.313782
H    -7.890645     0.073009    -1.976855
O    -7.400479     0.795374    -2.391449
H    -7.629640     0.784707    -3.343730
H     5.829660     0.136245     0.413586
O     5.606668     0.858121     1.033730
H     6.116293     0.663951     1.847220
H    -6.257649     3.314064     7.358845
O    -6.120760     2.804513     8.190545
H    -6.712773     2.035249     8.113806
H     2.282067    -8.073380    -0.838378
O     2.960448    -8.061022    -1.533320
H     2.736852    -8.775544    -2.146378
H    -2.741226    -3.972095    -6.199520
O    -1.986686    -4.536989    -5.967010
H    -1.711747    -4.244265    -5.069770
H    -5.678065     3.708868     5.343952
O    -6.438390     4.098381     5.845096
H    -6.167588     4.996907     6.057390
H    -1.013076    -7.120552    -3.161834
O    -0.541635    -6.450163    -2.633550
H     0.365648    -6.379148    -3.014336
H     4.430569     2.024719     5.127539
O     3.489096     2.264424     5.007155
H     3.103779     2.278189     5.888513
H     4.091290     4.665385     6.296958
O     4.168112     5.396904     5.679975
H     3.603269     5.153330     4.907919
H     2.747867     3.623022     3.919133
O     2.568519     4.562739     3.752378
H     2.450476     4.659809     2.785401
H     9.386869     0.220120    -1.066575
O     8.580860     0.383064    -0.573003
H     8.404988    -0.435874    -0.080050
H    -2.127451     5.325449     10.640858
O    -2.851785     4.698634     10.870237
H    -3.066985     4.871816     11.786994
H     7.969586    -3.000783     0.333385
O     8.389747    -2.153541     0.588330
H     8.322729    -2.147887     1.550541
H     5.355921     3.672464     3.523532
O     6.010612     3.939909     4.190754
H     5.596630     4.658562     4.690166
H    -4.235537     5.025946     9.772804
O    -4.868027     5.170084     9.048477
H    -5.477938     4.419662     9.050153
H    -7.011131    -3.491491    -3.492064
O    -7.629542    -4.106053    -3.940346
H    -7.106936    -4.547033    -4.641890
H     0.000189     6.133889     10.765141
O    -0.863851     6.464558     10.514939
H    -0.745075     6.895367     9.649227
H     2.583582     1.494634    -4.107575
O     3.461704     1.848161    -3.868454
H     3.781241     1.334205    -3.096964
H    -6.983143    -0.223019     7.213130
O    -7.493085     0.557538     7.486476
H    -8.122836     0.725643     6.784446
H    -2.736489    -9.879678    -0.827346
O    -2.674142    -8.938131    -0.987992
H    -3.580758    -8.572332    -0.748335
H    -10.075133     3.055850    -4.912317
O    -10.193495     2.139252    -4.629576
H    -10.407124     2.226405    -3.679264
H    -2.075707    -3.024837     4.611574
O    -2.950007    -3.466023     4.681963
H    -2.943241    -4.083482     3.925276
H    -0.177003    -7.982417     2.488591
O     0.648810    -7.771402     2.937346
H     1.367830    -8.066349     2.350998
H     6.695927    -2.363808     6.396929
O     7.147160    -3.073530     5.935051
H     6.518048    -3.809094     5.896150
H    -5.284159    -2.007727     6.936243
O    -5.961762    -1.510300     6.453379
H    -5.942490    -1.884633     5.542415
H     0.831194     3.025975    -7.119289
O     1.749681     2.697094    -7.175274
H     1.736914     1.948507    -7.799805
H    -3.968619     8.766960     6.658018
O    -3.983209     8.752372     5.700906
H    -4.096987     7.819760     5.448931
H    -2.077601     10.307615    -2.750552
O    -2.980118     10.489845    -3.049437
H    -2.909969     11.119692    -3.766175
H     9.405086    -4.047634     4.052339
O     9.126570    -4.725460     4.675800
H     8.695161    -4.253023     5.398754
H    -0.729249    -6.004703    -5.838850
O    -0.025092    -6.570377    -5.505257
H     0.809841    -6.107563    -5.722320
H     1.807552     8.276668     0.655628
O     1.503637     8.598978    -0.221444
H     2.317920     8.635802    -0.752685
H     3.492640     2.926529    -6.665075
O     4.320543     2.638377    -6.254793
H     4.074782     2.364999    -5.345901
H     3.716965     7.127055    -1.235901
O     3.921952     8.063073    -1.449565
H     4.291982     8.006513    -2.342559
H     4.394130    -0.010029    -7.911039
O     4.771397     0.137786    -7.041957
H     4.587530     1.069478    -6.799001
H     6.020962     1.938787    -0.475678
O     6.587166     2.132349    -1.236692
H     7.411906     1.653459    -1.041561
H     6.689347    -8.425999    -1.597244
O     7.325913    -8.215404    -2.333353
H     7.692903    -9.049682    -2.620764
H    -5.296108    -5.800954    -5.410423
O    -5.913971    -5.130707    -5.727463
H    -5.363972    -4.361169    -5.962850
H     0.662290     7.177205     7.594777
O    -0.240105     7.206042     7.952664
H    -0.792751     7.221183     7.133973
H    -8.896664    -2.850009    -4.111639
O    -9.420548    -2.043421    -3.945923
H    -9.133039    -1.376544    -4.573337
H    -2.406634    -5.995235    -2.143618
O    -3.285221    -5.710984    -2.412787
H    -3.471421    -6.085787    -3.298591
H    -2.981597    -5.909478    -5.410160
O    -3.580697    -6.520271    -4.938228
H    -3.097419    -7.339449    -4.770405
H    -1.396846     3.717486    -6.990366
O    -0.854496     2.963171    -6.719687
H    -1.091380     2.176834    -7.267866
H    -0.205570     0.408290    -8.219315
O    -1.102086     0.642817    -7.937021
H    -1.277406     0.120131    -7.138406
H    -10.432242     4.036066    -2.747646
O    -10.501224     3.257468    -2.179980
H    -9.669445     3.228848    -1.672540
H     4.566843     4.086107     1.717587
O     4.360242     3.165956     1.999644
H     5.074936     2.589497     1.716376
H     6.480010     1.401529    -4.218617
O     6.177654     0.777557    -3.524261
H     6.206664     1.273921    -2.680951
H     9.629352    -2.216093    -0.923136
O     9.906589    -2.001713    -1.822745
H     9.105981    -1.664830    -2.267215
H     9.968933    -3.312136    -3.090990
O     9.703660    -3.965149    -3.765677
H     9.309394    -3.458792    -4.486529
H    -7.693590    -8.587070    -1.667836
O    -6.955816    -7.992757    -1.796620
H    -7.333983    -7.079677    -1.788431
H     4.148009     6.082103    -3.825444
O     4.808177     6.784289    -3.740374
H     5.644815     6.331277    -3.602393
H     0.105467    -8.176161    -5.211708
O     0.131107    -9.158991    -5.079232
H     0.282387    -9.522931    -5.951578
H    -2.326447    -8.680174    -2.713429
O    -2.091944    -8.417418    -3.623124
H    -1.444093    -9.035436    -3.980304
H     2.193005    -10.818227    -3.488039
O     2.146258    -9.863697    -3.464800
H     1.360995    -9.594046    -3.991914
H     6.827247     3.334504    -4.575158
O     6.887290     2.655891    -5.275430
H     6.093761     2.786836    -5.816654
H    -3.573623    -3.722039     7.716913
O    -3.687732    -2.933811     7.187424
H    -3.436309    -3.172804     6.268789
H    -0.635517    -3.369884    -6.725043
O    -0.005867    -2.637925    -6.733065
H    -0.488641    -1.862708    -6.391968
H     0.626526     0.467006     8.751261
O     0.635612    -0.246861     8.109860
H    -0.285648    -0.538431     8.021538
H    -5.851108     7.353491    -4.264424
O    -6.352004     6.733652    -4.825750
H    -6.636744     6.000724    -4.234535
H    -4.296137     9.094415    -3.278971
O    -4.834237     8.300447    -3.169714
H    -4.420678     7.817436    -2.435992
H    -9.721639     5.779773    -4.664507
O    -10.254563     4.975059    -4.501018
H    -11.135159     5.174461    -4.820574
H     2.746975     6.523248     6.134204
O     1.786534     6.618755     6.231761
H     1.445268     5.704371     6.129318
H     4.783951     8.552739     0.077321
O     5.100432     8.554910     0.998680
H     5.508881     7.691389     1.130300
H     4.149136    -7.425575    -4.336181
O     3.392372    -7.712223    -4.879316
H     3.112431    -8.552868    -4.502240
H     0.358713     8.664926     4.225692
O     1.034219     8.018239     3.998383
H     1.261943     7.526442     4.813529
H     5.224637     4.194196    -3.160611
O     6.186117     4.166217    -3.106624
H     6.395151     3.585266    -2.358432
H    -2.587724    -1.543707     7.568174
O    -2.080552    -0.748731     7.790021
H    -2.709335    -0.125474     8.163451
H    -9.042200     7.919804    -4.162876
O    -8.977546     7.338319    -4.921876
H    -8.020194     7.171659    -5.053443
H     3.534753    -8.975512     1.096960
O     2.856836    -8.345122     1.345891
H     3.329692    -7.538488     1.624996
H     3.565015     8.176709     1.820545
O     2.774482     7.613193     1.934065
H     2.329386     7.848766     2.760559
N    -6.492003     4.463337     2.744162
H    -6.895506     4.444377     3.619775
H    -6.218169     5.380690     2.630218
