603

H     0.191329     3.033012    -0.680961
O     0.716533     2.364778    -1.171943
H     1.653788     2.492375    -0.892921
H    -0.109077    -1.303188     3.146401
O     0.287572    -0.604218     2.604023
H    -0.191294     0.209702     2.834315
H    -2.409295     2.414791    -0.551477
O    -2.201643     1.944361     0.273224
H    -2.219950     0.996384     0.049106
H    -4.689809     0.551939     2.158580
O    -5.007558    -0.380646     2.168631
H    -4.497301    -0.858957     1.507054
H     0.043030    -0.306519     0.949091
O    -0.147042    -0.070426     0.020427
H     0.190680     0.827168    -0.096963
H    -0.188212    -3.575192     3.773562
O    -0.469583    -2.745526     4.193114
H     0.173367    -2.574291     4.897651
H    -4.905796     2.538057     1.305636
O    -4.268932     2.128922     1.923034
H    -3.424517     2.110229     1.413687
H    -3.249635     3.903084    -2.231245
O    -2.513165     3.305947    -1.997306
H    -2.151214     3.017723    -2.855299
H    -0.147515    -3.802146     0.498696
O     0.191532    -2.985936     0.919692
H    -0.596750    -2.497997     1.227382
H    -2.408126    -1.534318     2.456352
O    -2.213501    -2.001218     1.616442
H    -2.468784    -1.414537     0.885541
H     2.061017    -1.443498    -1.113479
O     2.288379    -1.697246    -0.195212
H     1.496395    -2.122971     0.185037
H    -1.414211     1.830458     1.902171
O    -1.508147     1.431402     2.777209
H    -1.500929     2.142927     3.443391
H     0.197647    -2.701401    -1.571758
O    -0.556940    -2.088997    -1.630614
H    -0.380156    -1.362613    -0.995923
H    -3.454688    -2.920187    -0.411641
O    -2.734851    -3.412502    -0.828061
H    -2.023793    -2.781794    -1.042995
H     2.740547     0.126423     2.945841
O     2.835173    -0.055227     3.908204
H     2.923996     0.838299     4.311577
H    -3.535748     6.385536    -0.565268
O    -3.293186     7.048194    -1.264475
H    -3.153181     7.892922    -0.793151
H     3.880436     0.581231     1.202668
O     2.929402     0.399943     1.314658
H     2.693824    -0.351382     0.733237
H    -5.788181     0.849967    -1.634802
O    -4.878048     1.176948    -1.505851
H    -4.990636     2.005620    -0.994784
H    -1.233958     5.399827     2.202108
O    -1.858192     4.653105     2.080656
H    -1.943021     4.234716     2.942718
H     3.477731     2.760725     0.439877
O     3.235526     2.718660    -0.500750
H     3.568328     1.875443    -0.849458
H     1.481535    -4.696708    -2.246492
O     1.544283    -3.919798    -1.672744
H     2.340877    -3.459164    -2.019867
H    -0.925245    -0.081882    -2.556027
O    -0.288416     0.569540    -2.877007
H    -0.031406     1.151860    -2.138820
H     1.679202    -4.685538    -0.173837
O     1.782046    -5.323053     0.569066
H     1.318980    -6.133487     0.270522
H    -1.231970    -3.262129    -2.889588
O    -1.055495    -3.946024    -3.549090
H    -0.932789    -4.792836    -3.079005
H    -2.818964     3.312734     4.688351
O    -1.837816     3.307847     4.658696
H    -1.553285     2.907962     5.498574
H     0.928489     5.033597     4.078268
O    -0.017339     5.267376     4.123814
H    -0.492847     4.466210     4.382043
H    -1.748481    -4.646362    -0.385538
O    -0.985375    -5.189139    -0.098609
H    -1.336960    -5.874029     0.479541
H    -3.914971     5.837961    -2.621081
O    -4.264991     5.004501    -2.953276
H    -4.104830     4.969671    -3.920499
H    -2.458074    -3.687224     1.911571
O    -2.476573    -4.595263     2.278960
H    -1.537792    -4.829837     2.432427
H    -4.700678    -2.972198    -2.925078
O    -3.846696    -3.206536    -3.327294
H    -3.518936    -3.999965    -2.859564
H     0.302153     1.377867     4.609328
O     0.814110     2.137081     4.282684
H     0.851254     2.797102     4.989348
H    -4.669179    -5.163388    -1.596616
O    -5.374100    -4.809407    -1.027146
H    -5.166225    -5.162797    -0.141224
H     2.323677    -6.482209    -4.031967
O     1.982952    -6.153288    -3.180030
H     2.413549    -6.727462    -2.514663
H     0.466865    -3.377746    -4.006483
O     1.272095    -3.012072    -4.426015
H     0.956909    -2.639985    -5.275888
H     1.930267    -1.752982     2.988789
O     2.086412    -2.683925     2.772002
H     1.403915    -2.896633     2.101223
H    -3.017563    -1.803720    -3.228414
O    -2.594336    -0.917851    -3.162191
H    -3.248000    -0.271312    -3.483860
H    -3.207034     4.980646     1.059306
O    -3.985055     5.355406     0.599771
H    -4.403180     5.915093     1.303653
H     0.848824     2.254735     2.592351
O     0.955551     2.250413     1.621633
H     1.682064     1.625788     1.461352
H     0.183548     5.658320    -0.761380
O     0.708668     6.319665    -1.267531
H     0.848375     7.119262    -0.710998
H     0.321909     7.037825     2.588366
O    -0.036079     6.658363     1.768773
H     0.627633     5.985976     1.511437
H    -2.516137     0.219826     3.324470
O    -2.735811    -0.595062     3.827813
H    -1.976743    -0.631919     4.451520
H    -0.931843     0.561250     6.001013
O    -0.656565     0.029527     5.234157
H     0.051969    -0.572995     5.531838
H     0.679396    -4.992894     1.980051
O     0.133396    -5.102406     2.782058
H     0.275441    -6.023469     3.054184
H    -2.145845    -8.084109     0.434043
O    -1.826029    -7.597538     1.221116
H    -2.613751    -7.283692     1.672923
H    -0.377299     6.865849    -2.331203
O    -1.120800     7.286583    -2.834138
H    -1.913712     7.161097    -2.274266
H    -1.127972     4.313088     0.564964
O    -0.750666     4.373649    -0.329421
H    -1.454671     4.132286    -0.964918
H    -4.444922     2.744671     3.491721
O    -4.446548     2.914646     4.456342
H    -4.526618     2.032261     4.866340
H     1.983791    -3.582825     4.250441
O     1.915440    -4.055552     5.103112
H     2.417653    -3.518325     5.737005
H     4.663876    -3.197924     0.858747
O     4.508411    -3.122343    -0.108545
H     3.650313    -2.644181    -0.196342
H    -2.733442    -0.742846    -1.369057
O    -3.063933    -0.473411    -0.495718
H    -3.863571     0.052754    -0.704953
H    -1.611813    -0.756992    -4.643138
O    -1.099924    -0.542139    -5.444332
H    -0.391369     0.053979    -5.155271
H     1.792940    -1.714800    -3.371845
O     1.883432    -0.968057    -2.748459
H     1.106926    -0.390332    -2.882520
H     3.630653    -3.123717     2.565133
O     4.589806    -3.354054     2.496991
H     4.642466    -4.314319     2.623757
H     3.388028    -6.123323     3.136607
O     3.748305    -5.922747     2.238190
H     3.013829    -5.576445     1.691590
H    -3.338900     1.616701    -4.196850
O    -4.185124     1.146915    -4.010427
H    -4.407370     1.292488    -3.054607
H    -5.094363     4.155173     0.038702
O    -5.533064     3.289536    -0.068221
H    -6.462432     3.410142    -0.352066
H     6.722973    -1.188355    -1.333158
O     5.948410    -1.037756    -0.784891
H     5.527189    -1.904935    -0.589570
H     4.585884    -3.172357    -2.451528
O     3.720288    -3.000206    -2.871787
H     3.726536    -3.619046    -3.627830
H     4.388478    -2.296301     5.639941
O     4.042398    -2.760473     6.432583
H     4.375160    -3.666393     6.351979
H    -0.788481     6.341433     5.067992
O    -1.384020     6.921350     5.602348
H    -1.391919     7.797807     5.160316
H     4.688887    -0.140359    -1.446803
O     3.923591     0.402990    -1.713563
H     3.231817    -0.196649    -2.046835
H    -0.734472     4.525941    -4.044811
O    -1.515313     5.069904    -4.257403
H    -1.365473     5.936254    -3.833603
H     0.659274     3.205129    -2.658588
O     0.671790     3.581565    -3.567274
H     0.720562     2.817778    -4.152199
H    -5.415772    -5.181736     1.767566
O    -4.721589    -5.779967     1.412803
H    -3.879450    -5.366806     1.681828
H     7.882518    -1.697905    -3.998906
O     7.620930    -1.384375    -3.100464
H     7.135526    -0.540033    -3.259245
H     3.704255    -5.074944    -5.275611
O     4.465152    -4.702692    -4.791135
H     4.845840    -5.414150    -4.243312
H    -3.760630     0.022325     4.869639
O    -4.350781     0.477080     5.526788
H    -5.048302    -0.166183     5.729775
H     3.443275    -5.944319    -0.505925
O     4.317968    -5.698682    -0.819568
H     4.394878    -4.736384    -0.675885
H     5.003434    -0.340160    -4.139770
O     4.469607    -1.051158    -4.532347
H     4.138951    -1.633831    -3.816013
H    -1.168587     1.574780    -3.945798
O    -1.816395     2.195805    -4.335214
H    -1.454073     2.526944    -5.179602
H     4.871893    -6.326266    -2.294647
O     5.208650    -6.651804    -3.158583
H     6.025142    -7.133656    -2.967736
H     8.731852    -5.100792    -2.879525
O     8.037367    -5.517814    -2.324619
H     8.071450    -6.475150    -2.426567
H     2.324459     4.718311     0.458884
O     1.742196     4.701444     1.227744
H     1.382733     3.781746     1.304101
H    -4.453684    -2.629707     4.210713
O    -5.347305    -2.280223     4.025945
H    -5.211060    -1.500368     3.449816
H    -5.871136    -3.182032     1.294553
O    -6.335292    -3.737893     1.962697
H    -6.152615    -3.299613     2.813369
H     1.636243     3.467627     6.868109
O     1.019053     3.985065     6.330203
H     0.233368     4.138103     6.899498
H     4.963389    -2.172609     3.637241
O     4.981274    -1.454336     4.301450
H     4.170578    -0.897303     4.140563
H     2.344509    -5.577618     4.846532
O     2.724608    -6.462111     4.588810
H     1.979649    -7.042485     4.410621
H     2.267491    -4.517825    -6.782644
O     2.094088    -5.005836    -5.967698
H     1.826705    -4.314186    -5.313728
H     6.420472    -4.109064    -0.475529
O     7.171082    -4.512980    -0.008778
H     7.681209    -4.936338    -0.727185
H    -1.754097     4.505802     7.682638
O    -0.859622     4.587918     8.090178
H    -0.669676     5.545160     8.112119
H    -5.102463     5.700392    -5.625712
O    -4.495623     4.936237    -5.643388
H    -3.735325     5.149953    -6.205473
H     3.302211    -2.530624    -8.424351
O     3.210222    -3.063328    -7.623557
H     4.084679    -3.039696    -7.190317
H    -0.655957     8.828993    -2.287423
O    -0.533871     9.657961    -1.769091
H     0.224878     9.482541    -1.188013
H     2.023970    -0.911627     5.226962
O     1.449133    -1.443378     5.807034
H     1.518410    -1.096662     6.705725
H     5.213809    -2.029318    -5.671332
O     5.561822    -2.796020    -6.191571
H     5.284446    -3.585605    -5.675337
H     5.649529    -5.218943     4.710561
O     5.123513    -5.133250     5.534766
H     4.401727    -5.764457     5.445765
H    -4.014351     1.240745     6.997946
O    -3.891865     1.911898     7.714104
H    -4.801534     2.222468     7.948587
H    -1.853622     9.619160    -0.761402
O    -2.716446     9.494144    -0.291154
H    -3.325269     10.122562    -0.682778
H    -5.946678     4.697686    -2.971416
O    -6.853523     4.580045    -3.320881
H    -6.760481     3.876815    -3.996708
H     0.075016    -7.062893    -1.145930
O     0.535113    -7.499603    -0.396095
H    -0.147561    -7.693252     0.249491
H    -7.641354     3.801373    -2.014713
O    -7.907698     3.215303    -1.275874
H    -7.763068     2.306163    -1.613367
H     3.918320    -0.895049     7.001559
O     3.927883     0.069330     6.997608
H     4.740889     0.359441     6.567288
H     2.253110     5.795196    -1.173097
O     3.188059     5.501921    -1.054928
H     3.367491     4.961233    -1.847076
H     6.523361    -5.935541     0.700511
O     6.151456    -6.671315     1.232699
H     5.246165    -6.393078     1.455166
H    -3.871409     4.933419     7.774305
O    -3.302238     4.490808     7.103589
H    -3.532019     3.541918     7.156300
H     5.735114    -7.950623     0.163215
O     5.449517    -8.637836    -0.475233
H     4.622673    -8.311497    -0.873729
H    -0.599487     2.144537     7.637203
O    -1.207486     1.980945     6.897288
H    -2.051253     1.758933     7.302974
H    -6.403127    -0.111743     1.029689
O    -6.720716    -0.196715     0.115645
H    -7.640691    -0.463165     0.132841
H    -5.392114    -3.055366    -0.615671
O    -5.139560    -2.354273     0.010905
H    -5.708359    -1.580218    -0.176511
H     4.304742     5.574573     0.336255
O     4.634807     5.675219     1.242886
H     3.938565     6.186106     1.691867
H    -9.053155    -1.733742    -2.298946
O    -8.507987    -1.532444    -1.511119
H    -8.639274    -2.267450    -0.872582
H    -5.511880     3.477920    -5.558108
O    -6.032107     2.767910    -5.145925
H    -5.368380     2.182084    -4.728070
H     3.188976    -0.891394    -5.643281
O     2.335291    -1.010476    -6.113424
H     2.421871    -1.859898    -6.585825
H     8.124191    -1.358433    -5.993581
O     8.129418    -2.222363    -5.536936
H     7.273864    -2.621353    -5.791323
H     7.634283     0.982423    -6.277106
O     7.446673     0.134255    -6.691244
H     6.465444     0.085199    -6.732214
H    -7.886430    -3.679525     0.892987
O    -8.560777    -3.573996     0.204577
H    -8.459876    -4.334074    -0.395732
H    -2.419703     8.742876     1.274269
O    -2.273162     8.154761     2.028377
H    -1.503155     7.599895     1.809634
H    -4.474175     6.448787     3.461052
O    -4.639042     6.874195     2.602527
H    -3.873329     7.458401     2.469022
H     3.404285     3.443641    -3.565604
O     3.251540     4.413072    -3.473299
H     2.287152     4.478515    -3.585204
H    -6.119300    -1.596644    -3.473922
O    -6.206541    -2.176460    -2.690896
H    -6.991742    -1.867806    -2.184820
H     6.427287     1.044592     4.768355
O     6.030822     1.584142     5.469369
H     6.220825     2.502466     5.177870
H     1.373578     1.721387    -5.820073
O     1.174847     1.126066    -5.066550
H     1.538462     0.262420    -5.334223
H    -2.682180     3.040955     10.446124
O    -2.500875     2.131048     10.144229
H    -2.977189     2.061982     9.291521
H     7.593796    -0.504487     3.116939
O     6.843988     0.072438     3.282450
H     6.148874    -0.526837     3.658248
H    -5.682983    -8.045167    -0.729410
O    -4.951408    -8.114432    -0.079328
H    -4.957297    -7.296851     0.442291
H    -5.173296    -0.111354    -4.742664
O    -5.789691    -0.822537    -4.986009
H    -6.626588    -0.380062    -5.187582
H     1.907351    -0.200433    -7.509492
O     1.710437     0.271179    -8.354638
H     2.289760    -0.135135    -9.004700
H     4.897135    -1.399452    -9.283958
O     3.973593    -1.169705    -9.570723
H     3.957651    -1.288341    -10.519739
H     7.523042    -2.576532     4.233202
O     7.674578    -2.612962     3.274469
H     7.181555    -3.403222     3.000285
H     6.683538    -5.899817     2.714426
O     6.742768    -5.224713     3.415891
H     7.616623    -5.310696     3.837688
H    -1.845101     8.954241     3.481313
O    -1.601146     9.260762     4.380030
H    -2.452116     9.390747     4.832651
H    -7.381691     1.576928    -5.288769
O    -7.958633     0.833349    -5.047025
H    -8.860125     1.234154    -4.974876
H     6.946798    -1.091139    -8.374495
O     6.365683    -1.811909    -8.640758
H     6.133144    -2.261038    -7.809669
H    -1.653910     6.243643    -7.035559
O    -2.053963     5.418775    -6.763975
H    -1.810470     5.287879    -5.798999
H    -0.133346     3.414553     8.985056
O     0.152558     2.513789     9.254637
H    -0.619984     2.202238     9.761369
H     6.748164    -2.785920    -2.675562
O     6.215305    -3.529546    -2.336919
H     6.683833    -4.340940    -2.581357
H    -4.076010    -3.067030    -4.964987
O    -4.225410    -2.954482    -5.930595
H    -4.771606    -2.160843    -5.989356
H     1.902008     2.162548     8.479117
O     2.569027     2.285054     7.794603
H     3.003326     1.421244     7.675966
H    -6.925193    -5.191398    -1.429614
O    -7.839843    -5.460455    -1.679439
H    -7.968993    -5.057345    -2.562804
H    -3.860578     5.290182     5.660525
O    -3.830057     6.052532     5.059559
H    -2.896253     6.344882     5.158430
H    -7.893400     0.099139    -2.004920
O    -7.401186     0.821641    -2.417546
H    -7.625648     0.809972    -3.371538
H     5.817917     0.125768     0.436701
O     5.594049     0.847856     1.056179
H     6.099947     0.652463     1.871702
H    -6.431646     3.410862     7.325985
O    -6.252615     3.000802     8.210915
H    -6.822177     2.223735     8.285908
H     2.254125    -8.073995    -0.834086
O     2.935145    -8.062941    -1.526443
H     2.712208    -8.776654    -2.140671
H    -2.738337    -3.957299    -6.211834
O    -1.986243    -4.524234    -5.976614
H    -1.713915    -4.232790    -5.078170
H    -5.690257     3.746464     5.293511
O    -6.352205     4.148558     5.894607
H    -6.177073     5.090974     5.886189
H    -1.029816    -7.111490    -3.169786
O    -0.558861    -6.442435    -2.639423
H     0.350282    -6.373817    -3.016273
H     4.403944     2.014787     5.149214
O     3.463326     2.255629     5.024192
H     3.072182     2.271984     5.902676
H     4.066002     4.657057     6.315962
O     4.152448     5.386345     5.697723
H     3.587485     5.146899     4.924298
H     2.730406     3.617913     3.932008
O     2.557168     4.558554     3.765296
H     2.441240     4.657159     2.798407
H     9.380970     0.201755    -1.029504
O     8.573081     0.366177    -0.539533
H     8.393509    -0.452323    -0.047221
H    -2.155185     5.336859     10.632261
O    -2.886778     4.718338     10.863834
H    -3.105638     4.902264     11.777298
H     7.949987    -3.016357     0.363135
O     8.371245    -2.170272     0.620002
H     8.300592    -2.164722     1.581958
H     5.340629     3.661465     3.546860
O     5.993516     3.925737     4.216971
H     5.579065     4.644792     4.715894
H    -4.239296     5.116906     9.739829
O    -4.854304     5.298310     9.009916
H    -5.489154     4.569831     8.988427
H    -7.016996    -3.467798    -3.519669
O    -7.635853    -4.079398    -3.970927
H    -7.111881    -4.521932    -4.670589
H    -0.030302     6.139927     10.762171
O    -0.894882     6.471080     10.514672
H    -0.779405     6.898439     9.646341
H     2.592361     1.494118    -4.096369
O     3.470383     1.845395    -3.854135
H     3.785968     1.330749    -3.081431
H    -6.497597    -0.454859     7.779526
O    -6.587604     0.085461     8.590656
H    -7.282389    -0.358100     9.086282
H    -2.769562    -9.867439    -0.843010
O    -2.704303    -8.925966    -1.002967
H    -3.610705    -8.557980    -0.766255
H    -10.059910     3.089029    -4.949070
O    -10.180010     2.171895    -4.668570
H    -10.399334     2.256846    -3.719646
H    -2.109282    -3.027995     4.574480
O    -2.979360    -3.477827     4.641340
H    -2.970492    -4.093201     3.883273
H    -0.216907    -7.978921     2.483706
O     0.607539    -7.769493     2.935691
H     1.328304    -8.066218     2.352361
H     6.654438    -2.378365     6.421528
O     7.105619    -3.089194     5.961295
H     6.474750    -3.823109     5.919847
H    -5.193599    -2.116525     6.821456
O    -5.954571    -1.609135     6.471646
H    -6.019334    -1.932249     5.546714
H     0.855385     3.031889    -7.114601
O     1.772984     2.700224    -7.166863
H     1.760858     1.952200    -7.792090
H    -3.991672     8.766033     6.647473
O    -3.987142     8.768608     5.690083
H    -4.110514     7.841364     5.417944
H    -2.052194     10.318282    -2.754646
O    -2.952013     10.501520    -3.060956
H    -2.875569     11.134376    -3.774336
H     9.368392    -4.068025     4.087079
O     9.085717    -4.745521     4.709029
H     8.652725    -4.272386     5.430586
H    -0.732894    -5.995004    -5.844848
O    -0.031588    -6.562665    -5.508699
H     0.805453    -6.101982    -5.722219
H     1.814138     8.276371     0.666561
O     1.515831     8.598576    -0.212532
H     2.333074     8.634838    -0.739105
H     3.515110     2.925644    -6.649936
O     4.340535     2.634657    -6.236774
H     4.090737     2.361805    -5.328844
H     3.729673     7.122851    -1.218137
O     3.938272     8.058103    -1.431173
H     4.311191     8.000833    -2.322869
H     4.413925    -0.012712    -7.894006
O     4.787899     0.133420    -7.023228
H     4.605811     1.065535    -6.780489
H     6.016970     1.928715    -0.450914
O     6.586349     2.120603    -1.209988
H     7.409293     1.639966    -1.011669
H     6.663131    -8.437602    -1.575236
O     7.302789    -8.228364    -2.309017
H     7.668167    -9.063543    -2.595873
H    -5.301470    -5.780223    -5.432879
O    -5.916396    -5.107903    -5.751317
H    -5.363291    -4.340151    -5.985096
H     0.637712     7.181392     7.596704
O    -0.264125     7.207540     7.955395
H    -0.819160     7.218081     7.137112
H    -8.899621    -2.821020    -4.145214
O    -9.420931    -2.012350    -3.981179
H    -9.130012    -1.347351    -4.608967
H    -2.425088    -5.982920    -2.155544
O    -3.301839    -5.696045    -2.428042
H    -3.485514    -6.070400    -3.314591
H    -2.986880    -5.894579    -5.424253
O    -3.589583    -6.503752    -4.954843
H    -3.109195    -7.324356    -4.785502
H    -1.371379     3.728974    -6.993562
O    -0.832928     2.972685    -6.720513
H    -1.068947     2.187580    -7.270793
H    -0.183735     0.417414    -8.219821
O    -1.080820     0.653863    -7.940836
H    -1.260257     0.131232    -7.143171
H    -10.422981     4.068370    -2.786482
O    -10.494631     3.289519    -2.219193
H    -9.667773     3.261504    -1.706088
H     4.558869     4.078615     1.738031
O     4.349140     3.158008     2.016721
H     5.064972     2.581192     1.737272
H     6.489119     1.391774    -4.192513
O     6.182364     0.768190    -3.499707
H     6.209537     1.264045    -2.655985
H     9.616570    -2.235184    -0.886540
O     9.897770    -2.021443    -1.785070
H     9.099882    -1.681902    -2.232376
H     9.961727    -3.331158    -3.053574
O     9.697423    -3.983129    -3.729675
H     9.307326    -3.475350    -4.451789
H    -7.719969    -8.561775    -1.700385
O    -6.980400    -7.969164    -1.826735
H    -7.356313    -7.055260    -1.819077
H     4.167642     6.077632    -3.806795
O     4.829451     6.777972    -3.719716
H     5.664236     6.322912    -3.577363
H     0.093653    -8.169013    -5.215616
O     0.116045    -9.151962    -5.083615
H     0.269924    -9.515806    -5.955549
H    -2.349094    -8.668037    -2.726895
O    -2.110646    -8.405350    -3.635580
H    -1.462976    -9.024771    -3.990696
H     2.168321    -10.817171    -3.485923
O     2.123637    -9.862555    -3.462082
H     1.341047    -9.590700    -3.991988
H     6.842730     3.323696    -4.546880
O     6.903619     2.645246    -5.247289
H     6.112634     2.778789    -5.791554
H    -3.564988    -3.794948     7.616253
O    -3.576929    -2.993664     7.085295
H    -3.366253    -3.290513     6.170090
H    -0.629095    -3.360375    -6.728957
O     0.002274    -2.629882    -6.734168
H    -0.479853    -1.853610    -6.394762
H     0.740374     0.486466     8.397628
O     0.761747    -0.458000     8.213314
H    -0.184529    -0.696236     8.162779
H    -5.824225     7.376756    -4.284539
O    -6.325366     6.758439    -4.847747
H    -6.615457     6.027688    -4.257663
H    -4.270748     9.110806    -3.290143
O    -4.808029     8.315450    -3.186213
H    -4.403828     7.835516    -2.445186
H    -9.701005     5.810692    -4.696990
O    -10.236112     5.006752    -4.535640
H    -11.115168     5.208686    -4.857992
H     2.729347     6.517559     6.146984
O     1.769127     6.615445     6.241235
H     1.424042     5.702582     6.138352
H     4.795743     8.544678     0.099901
O     5.109872     8.545931     1.021959
H     5.513529     7.680495     1.155525
H     4.136298    -7.429087    -4.323894
O     3.380898    -7.713388    -4.870176
H     3.097394    -8.553615    -4.494834
H     0.349661     8.664670     4.228558
O     1.028899     8.020033     4.004884
H     1.249075     7.526290     4.820693
H     5.236835     4.187220    -3.137936
O     6.198017     4.155988    -3.080783
H     6.402666     3.574822    -2.331550
H    -2.384331    -1.558754     7.571880
O    -2.020928    -0.763397     7.987836
H    -2.613333    -0.644281     8.755634
H    -9.017679     7.949286    -4.194120
O    -8.951472     7.365437    -4.951220
H    -7.993893     7.199598    -5.081118
H     3.497625    -8.979942     1.105801
O     2.820312    -8.348073     1.352665
H     3.294169    -7.542865     1.634183
H     3.567534     8.172438     1.840155
O     2.776288     7.609413     1.948507
H     2.325754     7.845725     2.772176
N    -3.904696    -0.422226     10.084955
H    -3.587200     0.419518     10.450131
H    -4.730607    -0.193447     9.630867
