603

H     0.220672     3.046003    -0.689861
O     0.741788     2.375536    -1.181830
H     1.681363     2.504221    -0.911850
H    -0.049013    -1.276433     3.157413
O     0.342994    -0.578294     2.610194
H    -0.134940     0.235865     2.841040
H    -2.378747     2.429001    -0.537472
O    -2.164576     1.961683     0.287418
H    -2.184568     1.012792     0.066688
H    -4.636998     0.578920     2.195177
O    -4.954908    -0.354025     2.212606
H    -4.452732    -0.834852     1.546542
H     0.085288    -0.287182     0.954652
O    -0.113739    -0.054067     0.027169
H     0.224935     0.842079    -0.097867
H    -0.128326    -3.544226     3.794418
O    -0.404194    -2.711499     4.211649
H     0.243225    -2.539734     4.911858
H    -4.861161     2.559267     1.335365
O    -4.219804     2.151396     1.949162
H    -3.378911     2.130908     1.433954
H    -3.231846     3.911136    -2.216261
O    -2.493452     3.315090    -1.985134
H    -2.138851     3.022502    -2.844843
H    -0.108995    -3.784843     0.520720
O     0.233220    -2.965879     0.933941
H    -0.552905    -2.477599     1.246305
H    -2.353310    -1.508284     2.484438
O    -2.166685    -1.977635     1.644622
H    -2.427433    -1.393466     0.913632
H     2.086484    -1.432628    -1.119942
O     2.320659    -1.681433    -0.201985
H     1.532200    -2.107217     0.185652
H    -1.365770     1.852032     1.910172
O    -1.452308     1.457890     2.788213
H    -1.438462     2.172748     3.450930
H     0.219274    -2.692166    -1.558429
O    -0.535454    -2.079482    -1.613503
H    -0.353590    -1.351190    -0.982660
H    -3.422910    -2.905433    -0.367935
O    -2.707026    -3.399747    -0.788525
H    -1.997137    -2.770560    -1.011542
H     2.799864     0.155082     2.925246
O     2.903744    -0.020927     3.887845
H     2.991400     0.872858     4.287719
H    -3.505172     6.400129    -0.556885
O    -3.266942     7.059718    -1.260142
H    -3.124135     7.906644    -0.793662
H     3.924672     0.600399     1.172567
O     2.974156     0.421440     1.292747
H     2.733490    -0.333172     0.717258
H    -5.766653     0.860843    -1.589565
O    -4.855453     1.187757    -1.467461
H    -4.964233     2.018326    -0.958880
H    -1.181596     5.424889     2.195140
O    -1.805418     4.677144     2.083010
H    -1.884045     4.262105     2.947464
H     3.515617     2.776206     0.405390
O     3.266636     2.732317    -0.532907
H     3.595860     1.887699    -0.882197
H     1.497497    -4.689990    -2.235060
O     1.564853    -3.910413    -1.665374
H     2.358878    -3.451761    -2.020904
H    -0.911304    -0.076574    -2.544372
O    -0.277164     0.573919    -2.872609
H    -0.014354     1.158717    -2.138667
H     1.711674    -4.670741    -0.164540
O     1.820433    -5.304894     0.580268
H     1.354970    -6.116691     0.289078
H    -1.220870    -3.258098    -2.862069
O    -1.049495    -3.944201    -3.520527
H    -0.923128    -4.789483    -3.048531
H    -2.742355     3.351030     4.700626
O    -1.761209     3.347130     4.662200
H    -1.467867     2.946583     5.501186
H     0.927449     5.019658     4.072564
O    -0.015166     5.262033     4.053327
H    -0.500074     4.475142     4.355532
H    -1.718352    -4.632302    -0.346486
O    -0.952888    -5.172749    -0.061700
H    -1.299612    -5.856898     0.520304
H    -3.900565     5.844628    -2.608770
O    -4.252803     5.009354    -2.933815
H    -4.101588     4.970537    -3.902479
H    -2.410651    -3.660902     1.959292
O    -2.428802    -4.563782     2.338261
H    -1.488992    -4.802229     2.477432
H    -4.689398    -2.967795    -2.871554
O    -3.838453    -3.203191    -3.279431
H    -3.507146    -3.995423    -2.812015
H     0.371255     1.411198     4.606029
O     0.885133     2.164769     4.269291
H     0.923931     2.830233     4.972725
H    -4.647545    -5.153114    -1.534975
O    -5.347158    -4.796435    -0.960588
H    -5.131852    -5.147520    -0.075600
H     2.325062    -6.483006    -4.019602
O     1.991219    -6.150219    -3.166377
H     2.426689    -6.722147    -2.502171
H     0.469087    -3.377792    -3.992343
O     1.270874    -3.013197    -4.419360
H     0.949046    -2.645004    -5.268454
H     1.987659    -1.725994     2.983649
O     2.142958    -2.657472     2.769389
H     1.454555    -2.873925     2.105766
H    -3.008633    -1.800438    -3.192276
O    -2.585166    -0.914139    -3.132320
H    -3.241118    -0.269136    -3.452352
H    -3.163953     5.000855     1.070655
O    -3.945440     5.374814     0.616844
H    -4.358360     5.935359     1.322654
H     0.903773     2.278713     2.581375
O     1.004023     2.274106     1.609481
H     1.727458     1.647075     1.444518
H     0.211769     5.671228    -0.780986
O     0.734057     6.330461    -1.292789
H     0.877251     7.132666    -0.741268
H     0.378637     7.060230     2.564917
O     0.015114     6.680855     1.749145
H     0.675919     6.007154     1.486512
H    -2.451664     0.249136     3.348951
O    -2.671487    -0.563478     3.856722
H    -1.910140    -0.599790     4.477687
H    -0.855620     0.599787     6.027902
O    -0.585950     0.075991     5.254228
H     0.125278    -0.529098     5.541276
H     0.728370    -4.969786     1.998869
O     0.188871    -5.075082     2.805720
H     0.332818    -5.994875     3.081027
H    -2.108684    -8.066097     0.488000
O    -1.783079    -7.575282     1.270093
H    -2.567518    -7.261430     1.727576
H    -0.360741     6.872862    -2.350902
O    -1.108045     7.292315    -2.848621
H    -1.896629     7.168631    -2.282279
H    -1.089497     4.330537     0.560959
O    -0.718474     4.389050    -0.336029
H    -1.426826     4.144588    -0.965881
H    -4.377963     2.784007     3.510691
O    -4.371273     2.958934     4.474007
H    -4.455126     2.078427     4.888239
H     2.051114    -3.550351     4.253118
O     1.989979    -4.019250     5.108305
H     2.498308    -3.480297     5.735761
H     4.704790    -3.179537     0.838263
O     4.541607    -3.106842    -0.127979
H     3.682668    -2.629499    -0.210616
H    -2.709844    -0.732511    -1.339560
O    -3.033634    -0.458108    -0.465161
H    -3.834793     0.066967    -0.671416
H    -1.614147    -0.759419    -4.622430
O    -1.109230    -0.547127    -5.428631
H    -0.397899     0.049557    -5.147793
H     1.800565    -1.712663    -3.374702
O     1.895889    -0.963283    -2.755021
H     1.118394    -0.386239    -2.885747
H     3.685255    -3.099184     2.552550
O     4.643953    -3.329079     2.477775
H     4.698016    -4.288904     2.607836
H     3.446824    -6.095656     3.137806
O     3.800074    -5.898184     2.235835
H     3.061028    -5.554563     1.693753
H    -3.336997     1.616653    -4.172599
O    -4.181729     1.147668    -3.977537
H    -4.396381     1.297139    -3.020755
H    -5.060002     4.172249     0.066548
O    -5.499231     3.306156    -0.032461
H    -6.430738     3.424893    -0.310982
H     6.746102    -1.178306    -1.378260
O     5.976091    -1.025205    -0.824203
H     5.556562    -1.891774    -0.622103
H     4.600304    -3.167077    -2.471426
O     3.731393    -2.996047    -2.885328
H     3.731411    -3.618002    -3.638932
H     4.468251    -2.258036     5.618473
O     4.127780    -2.718473     6.415338
H     4.459551    -3.624916     6.336051
H    -0.716229     6.376625     5.050357
O    -1.314245     6.957376     5.578664
H    -1.327753     7.833544     5.135640
H     4.711526    -0.130680    -1.479848
O     3.943852     0.411920    -1.741551
H     3.249749    -0.189057    -2.067775
H    -0.731918     4.526222    -4.051920
O    -1.514567     5.069416    -4.259557
H    -1.360944     5.937638    -3.841331
H     0.672667     3.210016    -2.672202
O     0.678225     3.583446    -3.582004
H     0.722171     2.817652    -4.164761
H    -5.366497    -5.161918     1.832783
O    -4.671674    -5.758900     1.477528
H    -3.829824    -5.343053     1.744010
H     7.884202    -1.699095    -4.051129
O     7.629618    -1.381690    -3.151923
H     7.143338    -0.537987    -3.310544
H     3.695879    -5.080408    -5.280715
O     4.460374    -4.706025    -4.803591
H     4.845723    -5.415486    -4.256362
H    -3.752272     0.059602     4.947215
O    -4.350621     0.527407     5.578599
H    -5.010173    -0.128426     5.876714
H     3.473317    -5.931415    -0.505968
O     4.345367    -5.686474    -0.827402
H     4.423110    -4.723706    -0.688094
H     5.004585    -0.341471    -4.174129
O     4.466974    -1.053523    -4.559397
H     4.142604    -1.633909    -3.838312
H    -1.165423     1.575306    -3.938468
O    -1.815963     2.195845    -4.324025
H    -1.461114     2.523152    -5.173183
H     4.887535    -6.320165    -2.304512
O     5.217335    -6.648655    -3.169960
H     6.035164    -7.130171    -2.983995
H     8.742310    -5.097530    -2.924927
O     8.052320    -5.511935    -2.362556
H     8.085291    -6.469744    -2.460879
H     2.362167     4.736910     0.426572
O     1.788103     4.722069     1.201852
H     1.428210     3.802313     1.282853
H    -4.387789    -2.594294     4.257038
O    -5.281995    -2.255034     4.055432
H    -5.146150    -1.475835     3.477147
H    -5.828323    -3.165292     1.349898
O    -6.289559    -3.719218     2.021761
H    -6.097949    -3.280590     2.870066
H     1.734974     3.425847     6.863582
O     1.184595     3.981016     6.286252
H     0.358423     4.173206     6.802049
H     5.027423    -2.144332     3.609871
O     5.051337    -1.422231     4.270017
H     4.239609    -0.866472     4.113644
H     2.416605    -5.543104     4.854030
O     2.794814    -6.428228     4.596164
H     2.048505    -7.009608     4.427087
H     2.247071    -4.528824    -6.778534
O     2.080290    -5.013497    -5.960227
H     1.818379    -4.319373    -5.306833
H     6.450526    -4.096173    -0.506708
O     7.204948    -4.497705    -0.044115
H     7.709337    -4.924371    -0.764662
H    -1.748032     4.554780     7.503539
O    -0.829562     4.678441     7.845462
H    -0.720523     5.640220     7.980739
H    -5.112265     5.695301    -5.601993
O    -4.505211     4.931275    -5.620829
H    -3.749954     5.142337    -6.190657
H     3.268499    -2.548164    -8.436462
O     3.182692    -3.077061    -7.632463
H     4.060803    -3.052506    -7.206747
H    -0.639572     8.836424    -2.311322
O    -0.513557     9.666872    -1.796211
H     0.250602     9.494251    -1.221751
H     2.098734    -0.876585     5.210185
O     1.528613    -1.400454     5.801496
H     1.622509    -1.050730     6.696970
H     5.202150    -2.036521    -5.700831
O     5.545895    -2.805302    -6.220655
H     5.272601    -3.592846    -5.699095
H     5.720985    -5.185654     4.689727
O     5.201501    -5.095629     5.517592
H     4.479411    -5.727737     5.437845
H    -3.934523     1.196659     7.016483
O    -3.738484     1.674516     7.857758
H    -4.612737     2.062643     8.120809
H    -1.824926     9.632277    -0.778321
O    -2.683325     9.508712    -0.299555
H    -3.295670     10.135930    -0.687705
H    -5.935019     4.702847    -2.937674
O    -6.844774     4.583744    -3.278754
H    -6.757484     3.878256    -3.953022
H     0.099390    -7.051636    -1.113758
O     0.565656    -7.484795    -0.365727
H    -0.111693    -7.676449     0.286011
H    -7.622290     3.810587    -1.963732
O    -7.881512     3.227050    -1.220277
H    -7.740989     2.316725    -1.556516
H     4.004425    -0.838166     6.982544
O     4.019591     0.126263     6.966399
H     4.834165     0.401689     6.529518
H     2.278604     5.806359    -1.209714
O     3.214080     5.512795    -1.096331
H     3.387756     4.969706    -1.888406
H     6.562551    -5.917868     0.675958
O     6.194881    -6.651426     1.214001
H     5.291342    -6.372454     1.442556
H    -3.839624     4.780550     7.771418
O    -3.299154     4.314545     7.092437
H    -3.464691     3.369506     7.229386
H     5.770310    -7.935004     0.152736
O     5.479734    -8.624266    -0.481166
H     4.649451    -8.299615    -0.873792
H    -0.660078     2.085128     7.674661
O    -1.271351     1.977521     6.925465
H    -2.138321     1.793703     7.313279
H    -6.362648    -0.091072     1.084580
O    -6.685759    -0.178131     0.173006
H    -7.604819    -0.447539     0.195173
H    -5.360747    -3.041670    -0.557210
O    -5.105144    -2.336953     0.064347
H    -5.675396    -1.564420    -0.124078
H     4.343226     5.590967     0.283574
O     4.679063     5.695031     1.187815
H     3.986473     6.208806     1.638701
H    -9.036550    -1.724795    -2.215607
O    -8.485544    -1.520833    -1.432428
H    -8.611800    -2.254530    -0.791104
H    -5.521234     3.473297    -5.523071
O    -6.038009     2.765056    -5.103596
H    -5.370906     2.180365    -4.689664
H     3.177777    -0.898024    -5.660938
O     2.320192    -1.018739    -6.123437
H     2.403051    -1.869877    -6.593572
H     8.110051    -1.367191    -6.049027
O     8.118623    -2.229107    -5.588693
H     7.261271    -2.629278    -5.835019
H     7.618133     0.972866    -6.338089
O     7.426832     0.122955    -6.746859
H     6.445320     0.073989    -6.779897
H    -7.845380    -3.660738     0.972102
O    -8.525604    -3.555769     0.289213
H    -8.430487    -4.318068    -0.309290
H    -2.377034     8.763589     1.265011
O    -2.221428     8.179001     2.020305
H    -1.454547     7.623152     1.794737
H    -4.410053     6.473650     3.485206
O    -4.580828     6.895873     2.626431
H    -3.817983     7.481299     2.483954
H     3.410276     3.445442    -3.601394
O     3.258381     4.415265    -3.510488
H     2.293305     4.480443    -3.616468
H    -6.112305    -1.593968    -3.414450
O    -6.193042    -2.169806    -2.627779
H    -6.975155    -1.859793    -2.117842
H     6.500084     1.076944     4.716362
O     6.109236     1.621444     5.417032
H     6.300261     2.537119     5.120292
H     1.361488     1.714316    -5.833190
O     1.169214     1.122124    -5.075446
H     1.530118     0.257246    -5.343069
H    -2.426110     3.049622     10.477690
O    -2.205205     2.142914     10.204479
H    -2.812430     1.929675     9.483795
H     7.653576    -0.475592     3.061737
O     6.904658     0.101200     3.232028
H     6.213203    -0.498564     3.614306
H    -5.654688    -8.031883    -0.647693
O    -4.917569    -8.098673    -0.003637
H    -4.918842    -7.279335     0.515146
H    -5.176477    -0.113522    -4.696774
O    -5.795035    -0.825596    -4.931644
H    -6.633450    -0.383883    -5.128591
H     1.881653    -0.214051    -7.519309
O     1.678072     0.254826    -8.364382
H     2.251763    -0.154106    -9.017815
H     4.856539    -1.420134    -9.313149
O     3.930767    -1.191113    -9.593179
H     3.907224    -1.313057    -10.541635
H     7.590956    -2.545869     4.187135
O     7.734045    -2.584862     3.227192
H     7.239913    -3.376887     2.960011
H     6.738787    -5.874514     2.688379
O     6.803863    -5.196158     3.386194
H     7.680880    -5.281102     3.801690
H    -1.782627     8.984979     3.464117
O    -1.526335     9.292715     4.359195
H    -2.371793     9.428171     4.821075
H    -7.388961     1.573474    -5.231830
O    -7.963672     0.831012    -4.981609
H    -8.864765     1.231928    -4.904376
H     6.913859    -1.108926    -8.421398
O     6.330020    -1.830258    -8.680030
H     6.104503    -2.276526    -7.845510
H    -1.675395     6.232587    -7.041889
O    -2.073073     5.408802    -6.763616
H    -1.821957     5.281738    -5.800313
H     0.018613     3.412304     9.004109
O     0.185150     2.481326     9.251653
H    -0.623045     2.242079     9.765317
H     6.760463    -2.781858    -2.714558
O     6.230315    -3.523882    -2.368353
H     6.696932    -4.336391    -2.613008
H    -4.081096    -3.070135    -4.915960
O    -4.237952    -2.961239    -5.880764
H    -4.784938    -2.168104    -5.938497
H     1.976015     2.035335     8.484717
O     2.740873     2.279372     7.939070
H     3.196979     1.434030     7.758669
H    -6.902306    -5.180192    -1.349544
O    -7.818919    -5.449799    -1.591007
H    -7.955074    -5.050783    -2.475152
H    -3.793976     5.305039     5.684790
O    -3.759322     6.070537     5.089142
H    -2.825059     6.363038     5.181628
H    -7.874804     0.108217    -1.939310
O    -7.385436     0.829388    -2.357605
H    -7.617067     0.814595    -3.309990
H     5.855353     0.142913     0.393388
O     5.636513     0.867175     1.012465
H     6.149543     0.674130     1.824150
H    -6.170158     3.369207     7.404747
O    -6.040308     2.853592     8.234690
H    -6.642145     2.093156     8.151651
H     2.281830    -8.062022    -0.814597
O     2.956506    -8.053039    -1.513160
H     2.728803    -8.769519    -2.122453
H    -2.753527    -3.965761    -6.169970
O    -1.999553    -4.531679    -5.938448
H    -1.720167    -4.236884    -5.043313
H    -5.605094     3.809295     5.314726
O    -6.255642     4.208445     5.928490
H    -6.086727     5.151581     5.916333
H    -1.021332    -7.108092    -3.128047
O    -0.546196    -6.436541    -2.604465
H     0.360017    -6.370019    -2.988786
H     4.509704     2.008613     5.105881
O     3.570161     2.264014     4.972641
H     3.148389     2.134973     5.828090
H     4.227010     4.778303     6.085081
O     4.259625     5.523472     5.473478
H     3.659474     5.217121     4.739270
H     2.795124     3.647863     3.898555
O     2.625369     4.588573     3.729155
H     2.500351     4.683643     2.762571
H     9.406519     0.212803    -1.101740
O     8.602695     0.378947    -0.605625
H     8.427400    -0.438081    -0.109239
H    -1.966528     5.336868     10.663250
O    -2.760666     4.781256     10.867511
H    -2.960957     4.945727     11.789090
H     7.986913    -3.000063     0.315178
O     8.409590    -2.152669     0.565581
H     8.347296    -2.144199     1.528090
H     5.402756     3.692531     3.491071
O     6.058837     3.960819     4.157149
H     5.653701     4.686832     4.650246
H    -4.143777     5.098811     9.777648
O    -4.785557     5.238948     9.060107
H    -5.394075     4.487853     9.069620
H    -7.010231    -3.465224    -3.445849
O    -7.632970    -4.078149    -3.889620
H    -7.114857    -4.523922    -4.591616
H     0.184077     5.771370     10.418659
O    -0.592641     6.312219     10.618303
H    -0.692612     6.854056     9.819155
H     2.594086     1.493642    -4.118979
O     3.473553     1.846574    -3.884124
H     3.795788     1.333886    -3.112937
H    -6.933018    -0.159921     7.245247
O    -7.440230     0.619949     7.523969
H    -8.064830     0.801864     6.820771
H    -2.741556    -9.854702    -0.776923
O    -2.677717    -8.913851    -0.941141
H    -3.582397    -8.545185    -0.698970
H    -10.064557     3.087172    -4.876215
O    -10.181661     2.171036    -4.591209
H    -10.394287     2.259378    -3.641140
H    -2.040303    -2.982933     4.635369
O    -2.915087    -3.422201     4.709745
H    -2.912407    -4.043151     3.956124
H    -0.163803    -7.953079     2.522104
O     0.664468    -7.741554     2.965994
H     1.380265    -8.041225     2.378093
H     6.739565    -2.340119     6.383151
O     7.187031    -3.051224     5.919817
H     6.556678    -3.786058     5.886567
H    -5.235457    -1.947277     6.971797
O    -5.912999    -1.451178     6.487582
H    -5.900276    -1.832341     5.580266
H     0.832930     3.020073    -7.128594
O     1.749989     2.687886    -7.186226
H     1.733151     1.937714    -7.808851
H    -3.900501     8.812107     6.649380
O    -3.900113     8.804513     5.691923
H    -4.033265     7.876171     5.430158
H    -2.038726     10.324328    -2.773138
O    -2.941462     10.505461    -3.071784
H    -2.872341     11.136169    -3.787822
H     9.435558    -4.038123     4.031860
O     9.156680    -4.713117     4.658184
H     8.730538    -4.237183     5.381940
H    -0.745438    -6.002443    -5.810777
O    -0.041605    -6.568378    -5.477047
H     0.793781    -6.109114    -5.699715
H     1.854865     8.294743     0.624284
O     1.549371     8.613457    -0.252969
H     2.361938     8.647725    -0.787083
H     3.496259     2.915420    -6.684974
O     4.324985     2.626487    -6.277006
H     4.082381     2.356574    -5.366324
H     3.754657     7.133223    -1.271382
O     3.961220     8.068008    -1.488257
H     4.326907     8.008224    -2.382872
H     4.385111    -0.028368    -7.924725
O     4.765321     0.121497    -7.057263
H     4.585534     1.054694    -6.817392
H     6.048087     1.941125    -0.502554
O     6.611273     2.131375    -1.266537
H     7.435686     1.650725    -1.074034
H     6.684557    -8.428433    -1.591561
O     7.318267    -8.221619    -2.331155
H     7.683225    -9.057489    -2.616550
H    -5.310466    -5.785562    -5.363133
O    -5.927755    -5.114068    -5.678729
H    -5.376412    -4.347687    -5.920791
H     0.515674     7.480211     7.677956
O    -0.415952     7.434885     7.945123
H    -0.867141     7.352407     7.067266
H    -8.898543    -2.820428    -4.058395
O    -9.417230    -2.010421    -3.892692
H    -9.132559    -1.348788    -4.526846
H    -2.408471    -5.975433    -2.107883
O    -3.286945    -5.688741    -2.374972
H    -3.477832    -6.067267    -3.258289
H    -2.995819    -5.900191    -5.372417
O    -3.594824    -6.507006    -4.895349
H    -3.113535    -7.327275    -4.726833
H    -1.392666     3.717796    -6.992471
O    -0.852383     2.962604    -6.720048
H    -1.092224     2.175336    -7.265734
H    -0.214780     0.401660    -8.215410
O    -1.109352     0.639661    -7.929697
H    -1.282773     0.119359    -7.129228
H    -10.410552     4.074574    -2.714716
O    -10.476952     3.298181    -2.143380
H    -9.646152     3.272970    -1.636839
H     4.608080     4.100084     1.688293
O     4.402773     3.182025     1.978457
H     5.112617     2.602071     1.689830
H     6.489617     1.390450    -4.246034
O     6.188037     0.769980    -3.548120
H     6.222638     1.269085    -2.706754
H     9.643435    -2.224232    -0.950947
O     9.917322    -2.013178    -1.852340
H     9.115699    -1.676125    -2.294713
H     9.971196    -3.328494    -3.116565
O     9.700731    -3.983109    -3.787567
H     9.305397    -3.478225    -4.508841
H    -7.698613    -8.552450    -1.601327
O    -6.960519    -7.959564    -1.734887
H    -7.337071    -7.046054    -1.727648
H     4.171825     6.078570    -3.859424
O     4.833846     6.779377    -3.777930
H     5.670222     6.324801    -3.643598
H     0.086137    -8.173952    -5.178946
O     0.109278    -9.156252    -5.042788
H     0.256186    -9.524148    -5.914228
H    -2.336736    -8.663011    -2.668911
O    -2.105430    -8.403264    -3.580297
H    -1.461099    -9.024331    -3.938664
H     2.174406    -10.815281    -3.454475
O     2.129686    -9.860569    -3.434336
H     1.342776    -9.591132    -3.959005
H     6.840889     3.321430    -4.610627
O     6.895673     2.639819    -5.308318
H     6.100668     2.771475    -5.847162
H    -3.526951    -3.665112     7.751056
O    -3.642625    -2.879958     7.217421
H    -3.394348    -3.123284     6.299585
H    -0.648409    -3.371086    -6.706118
O    -0.017216    -2.640505    -6.718828
H    -0.496929    -1.862963    -6.379105
H     0.677457     0.519423     8.752077
O     0.692793    -0.195838     8.112901
H    -0.228955    -0.487543     8.026768
H    -5.822893     7.377163    -4.261816
O    -6.328139     6.756402    -4.818539
H    -6.614348     6.028482    -4.223219
H    -4.261819     9.114854    -3.286154
O    -4.797757     8.319576    -3.174921
H    -4.387856     7.842833    -2.435139
H    -9.703689     5.809585    -4.636388
O    -10.237317     5.006205    -4.467619
H    -11.118923     5.206820    -4.783832
H     2.852356     6.631797     6.145271
O     1.900290     6.698838     6.348420
H     1.598501     5.778311     6.191164
H     4.830031     8.561951     0.032878
O     5.148223     8.564822     0.953729
H     5.558410     7.702033     1.084496
H     4.135201    -7.430956    -4.323083
O     3.374819    -7.716982    -4.861474
H     3.094847    -8.556048    -4.480884
H     0.421464     8.689148     4.206091
O     1.102439     8.039056     3.998950
H     1.307879     7.552636     4.816062
H     5.246066     4.190124    -3.192201
O     6.207643     4.160058    -3.141853
H     6.418537     3.580760    -2.392950
H    -2.539676    -1.488522     7.590790
O    -2.024121    -0.697012     7.804186
H    -2.643929    -0.065388     8.179595
H    -9.015601     7.950893    -4.148181
O    -8.955581     7.362915    -4.902588
H    -7.999214     7.197210    -5.040401
H     3.538908    -8.960850     1.118920
O     2.864010    -8.326895     1.366992
H     3.340617    -7.521130     1.642056
H     3.617268     8.194141     1.781535
O     2.826246     7.632297     1.903955
H     2.388190     7.872068     2.732143
N     1.981021     5.209202     9.223584
H     2.079020     5.733878     8.416044
H     2.544464     4.439050     9.086042
