24
Coordinates from ORCA-job grain_mol_opt.QMRegion
  H   2.36290899304822     -6.57347528894695     -3.91198611979454
  O   2.01858831654289     -6.23559098201349     -3.07462287527173
  H   2.41783602180459     -6.83796197637141     -2.40693871864347
  H   3.74028775028777     -5.06925830848788     -5.21939452115525
  O   4.50754136956309     -4.72151277681948     -4.72695132314458
  H   4.88494541573082     -5.42332014954680     -4.16588739976400
  H   2.27510608980000     -4.44234798208291     -6.73157578673975
  O   2.12532053729126     -4.95981225596520     -5.92400041555084
  H   1.86834486503863     -4.25976844781410     -5.26064736992453
  H   -0.83293664289832     -5.91230606885665     -5.87808157077309
  O   -0.12377139302446     -6.49067516677928     -5.56514397162109
  H   0.69538534793482     -5.97805619106471     -5.71478259986671
  H   0.02637246661126     -8.13815779400603     -5.10932439660366
  O   0.19828835183151     -9.10602514415361     -5.00079531680187
  H   0.67593901004576     -9.28626067658770     -5.83008959325544
  H   2.29848550271887    -10.75993131915445     -3.51256663193659
  O   2.15692613399098     -9.81964201055422     -3.39841273397027
  H   1.35348572988371     -9.55245689488605     -3.93313817698801
  H   4.28619750108581     -7.54016170551948     -4.30539562999679
  O   3.52467996659936     -7.88171430191531     -4.81166613676368
  H   3.23528842438912     -8.66617163867244     -4.30040995980159
  O   2.04326651453536     -8.74147365134810     -7.09034963979491
  H   2.71163288904415     -8.35229158666625     -6.49689410989205
  H   1.65074048052350     -7.97932593524515     -7.52882216130360
