603

H     0.206775     3.026706    -0.676967
O     0.730007     2.358431    -1.169915
H     1.668729     2.487878    -0.896567
H    -0.068373    -1.311706     3.152237
O     0.325232    -0.611366     2.609179
H    -0.153459     0.201982     2.841263
H    -2.392060     2.405118    -0.533835
O    -2.180647     1.934333     0.289848
H    -2.197583     0.986512     0.064562
H    -4.655199     0.540521     2.183892
O    -4.971523    -0.393070     2.197351
H    -4.467430    -0.870395     1.530170
H     0.072055    -0.312915     0.953622
O    -0.124638    -0.076828     0.026539
H     0.212727     0.820577    -0.093930
H    -0.144550    -3.583524     3.779472
O    -0.422249    -2.752671     4.199940
H     0.222716    -2.580845     4.902060
H    -4.879810     2.524006     1.332333
O    -4.239888     2.114777     1.946895
H    -3.397411     2.097502     1.433743
H    -3.243147     3.892356    -2.209606
O    -2.505182     3.295735    -1.978768
H    -2.146844     3.008091    -2.838561
H    -0.116526    -3.809635     0.505806
O     0.224684    -2.991891     0.922966
H    -0.562931    -2.505551     1.234593
H    -2.369679    -1.544283     2.471064
O    -2.179045    -2.009641     1.630225
H    -2.439038    -1.423310     0.900651
H     2.080622    -1.447174    -1.119795
O     2.312808    -1.701264    -0.202677
H     1.522968    -2.127996     0.181183
H    -1.384463     1.819015     1.913595
O    -1.474508     1.421135     2.789742
H    -1.461320     2.133597     3.454662
H     0.216423    -2.707834    -1.568639
O    -0.538907    -2.096216    -1.623096
H    -0.359913    -1.369843    -0.989168
H    -3.428962    -2.931253    -0.389829
O    -2.711133    -3.422920    -0.810097
H    -2.001535    -2.791961    -1.028667
H     2.780045     0.124693     2.935052
O     2.879253    -0.058172     3.896718
H     2.969936     0.834812     4.301532
H    -3.524736     6.374364    -0.540809
O    -3.286518     7.037119    -1.240892
H    -3.145196     7.882250    -0.770511
H     3.908766     0.580501     1.186567
O     2.958638     0.397219     1.303588
H     2.721325    -0.354079     0.722950
H    -5.774746     0.836021    -1.602596
O    -4.864398     1.163644    -1.476244
H    -4.975773     1.992041    -0.964714
H    -1.206638     5.391939     2.212147
O    -1.830975     4.644271     2.095471
H    -1.908856     4.225764     2.958038
H     3.499557     2.759479     0.426446
O     3.251590     2.716568    -0.512677
H     3.584364     1.874223    -0.863419
H     1.498299    -4.700104    -2.252815
O     1.565866    -3.924719    -1.677211
H     2.358713    -3.461510    -2.030147
H    -0.915216    -0.089853    -2.547191
O    -0.280662     0.562457    -2.870909
H    -0.021034     1.145211    -2.134058
H     1.702137    -4.688718    -0.185066
O     1.807956    -5.327139     0.556025
H     1.343144    -6.140256     0.262107
H    -1.219544    -3.271013    -2.878785
O    -1.044150    -3.953459    -3.539903
H    -0.918795    -4.801286    -3.071907
H    -2.774235     3.302592     4.706464
O    -1.792925     3.300111     4.672369
H    -1.500041     2.898564     5.508683
H     0.967490     5.029903     4.077555
O     0.021348     5.261647     4.129932
H    -0.450344     4.458294     4.387760
H    -1.722105    -4.656577    -0.369510
O    -0.955733    -5.194910    -0.083789
H    -1.301963    -5.885058     0.491944
H    -3.913448     5.826462    -2.595885
O    -4.263796     4.992171    -2.925593
H    -4.109261     4.957539    -3.893864
H    -2.421385    -3.695478     1.937371
O    -2.439442    -4.599005     2.314384
H    -1.499381    -4.837490     2.453989
H    -4.687811    -2.985950    -2.897132
O    -3.835303    -3.218098    -3.303528
H    -3.504185    -4.012060    -2.838785
H     0.346334     1.372141     4.616135
O     0.853005     2.131879     4.282727
H     0.900584     2.791366     4.989236
H    -4.646581    -5.176431    -1.569434
O    -5.348285    -4.823009    -0.995487
H    -5.134914    -5.177776    -0.111480
H     2.335401    -6.485888    -4.037957
O     2.000072    -6.156062    -3.183777
H     2.426074    -6.739241    -2.522731
H     0.473948    -3.383273    -4.005051
O     1.276850    -3.015677    -4.427558
H     0.957146    -2.644724    -5.276332
H     1.969059    -1.755924     2.983163
O     2.128386    -2.685875     2.764576
H     1.441783    -2.901891     2.098516
H    -3.008006    -1.814605    -3.208186
O    -2.586130    -0.927876    -3.143132
H    -3.242064    -0.282616    -3.462673
H    -3.185400     4.969735     1.082064
O    -3.967286     5.342976     0.627783
H    -4.382605     5.900545     1.334088
H     0.882418     2.248959     2.592393
O     0.983204     2.244238     1.621166
H     1.710436     1.621521     1.456764
H     0.194707     5.652416    -0.756630
O     0.716140     6.314465    -1.265447
H     0.857788     7.114399    -0.709757
H     0.347672     7.031385     2.592628
O    -0.014507     6.650692     1.775369
H     0.649755     5.980496     1.513658
H    -2.472723     0.209444     3.342717
O    -2.693870    -0.604847     3.847528
H    -1.933478    -0.644165     4.469176
H    -0.885981     0.548368     6.026709
O    -0.611444     0.028613     5.252491
H     0.101366    -0.574818     5.539422
H     0.714679    -4.998711     1.979850
O     0.178345    -5.104790     2.787663
H     0.316641    -6.030305     3.056479
H    -2.107454    -8.093421     0.450162
O    -1.788763    -7.602864     1.234679
H    -2.576971    -7.294401     1.688969
H    -0.375964     6.859329    -2.323538
O    -1.122731     7.279035    -2.822402
H    -1.912488     7.152281    -2.258528
H    -1.108359     4.304584     0.575662
O    -0.735609     4.365783    -0.320493
H    -1.442341     4.123718    -0.952760
H    -4.403105     2.740748     3.509503
O    -4.401124     2.910944     4.474124
H    -4.484333     2.027820     4.883107
H     2.033379    -3.590202     4.240976
O     1.988463    -4.075746     5.088094
H     2.474031    -3.526456     5.725102
H     4.699093    -3.187930     0.834939
O     4.533358    -3.124105    -0.131978
H     3.675135    -2.645140    -0.214699
H    -2.716210    -0.753786    -1.350268
O    -3.043057    -0.483721    -0.475616
H    -3.844153     0.041366    -0.682170
H    -1.611047    -0.765655    -4.630108
O    -1.104162    -0.549341    -5.433967
H    -0.394626     0.047409    -5.148713
H     1.801005    -1.718638    -3.376903
O     1.893716    -0.972432    -2.752953
H     1.116196    -0.395238    -2.883672
H     3.621725    -2.983267     2.487224
O     4.586306    -3.216990     2.429427
H     4.587088    -4.175249     2.575826
H     3.327214    -6.061124     3.041295
O     3.759511    -5.823051     2.178707
H     3.041074    -5.493662     1.596629
H    -3.338843     1.605857    -4.175618
O    -4.183504     1.134898    -3.984815
H    -4.400907     1.280237    -3.028080
H    -5.077637     4.141241     0.069275
O    -5.515784     3.274952    -0.033729
H    -6.446334     3.393667    -0.315418
H     6.740131    -1.184630    -1.365463
O     5.969609    -1.036207    -0.810829
H     5.549781    -1.904024    -0.616575
H     4.602101    -3.172879    -2.470886
O     3.733389    -3.002590    -2.885789
H     3.736911    -3.620021    -3.643313
H     4.444113    -2.295108     5.621858
O     4.100511    -2.761152     6.414755
H     4.438540    -3.665207     6.337840
H    -0.748531     6.332540     5.077105
O    -1.345221     6.908025     5.615494
H    -1.359294     7.785129     5.174053
H     4.704785    -0.140240    -1.466603
O     3.936981     0.401762    -1.728609
H     3.244650    -0.198598    -2.059475
H    -0.738751     4.518990    -4.035548
O    -1.521695     5.061713    -4.243351
H    -1.370539     5.928442    -3.820852
H     0.664117     3.199471    -2.656938
O     0.671320     3.576248    -3.565385
H     0.718386     2.812869    -4.151004
H    -5.374957    -5.199957     1.796590
O    -4.678260    -5.794103     1.440702
H    -3.837526    -5.378715     1.711436
H     7.886860    -1.693494    -4.035112
O     7.629021    -1.380268    -3.135283
H     7.142401    -0.536274    -3.292063
H     3.707658    -5.075694    -5.290682
O     4.469692    -4.701812    -4.809183
H     4.854851    -5.413532    -4.264352
H    -3.776862     0.011801     4.936809
O    -4.377056     0.475671     5.569963
H    -5.037187    -0.182539     5.861865
H     3.441841    -5.883097    -0.759397
O     4.362250    -5.632319    -0.873330
H     4.382686    -4.657329    -0.755074
H     5.005709    -0.339073    -4.161037
O     4.470604    -1.050809    -4.550527
H     4.144721    -1.634014    -3.832744
H    -1.167783     1.567006    -3.935338
O    -1.818417     2.187699    -4.320413
H    -1.461505     2.519340    -5.167022
H     4.897816    -6.328128    -2.310773
O     5.226655    -6.646195    -3.180498
H     6.042860    -7.132578    -2.998873
H     8.747728    -5.094681    -2.917758
O     8.059565    -5.511916    -2.355592
H     8.088814    -6.469355    -2.464711
H     2.342943     4.715632     0.452022
O     1.764394     4.697229     1.223719
H     1.406934     3.777012     1.301208
H    -4.407157    -2.640947     4.233604
O    -5.301229    -2.301320     4.031928
H    -5.164891    -1.520363     3.456071
H    -5.838703    -3.202105     1.320150
O    -6.301298    -3.759005     1.988676
H    -6.112604    -3.323733     2.839198
H     1.693370     3.464235     6.863330
O     1.070015     3.979211     6.329463
H     0.287276     4.132471     6.901439
H     5.012458    -2.163814     3.617327
O     5.030773    -1.448743     4.286209
H     4.218349    -0.893962     4.126778
H     2.400838    -5.521615     4.824043
O     2.748927    -6.425504     4.566625
H     1.949349    -6.952629     4.434718
H     2.262194    -4.520276    -6.790576
O     2.094231    -5.008353    -5.974557
H     1.828942    -4.317444    -5.319322
H     6.444451    -4.115892    -0.495854
O     7.194384    -4.526710    -0.033762
H     7.703250    -4.938704    -0.760341
H    -1.718198     4.484335     7.703029
O    -0.819069     4.582775     8.087827
H    -0.638683     5.542061     8.112387
H    -5.116325     5.687563    -5.593553
O    -4.508280     4.924405    -5.613885
H    -3.751474     5.139022    -6.180367
H     3.285299    -2.531317    -8.437413
O     3.197960    -3.063446    -7.635715
H     4.074864    -3.039611    -7.207550
H    -0.657787     8.822136    -2.277047
O    -0.534842     9.650720    -1.758366
H     0.227693     9.476666    -1.181884
H     2.073885    -0.917817     5.212006
O     1.504309    -1.447345     5.799523
H     1.594965    -1.099066     6.696116
H     5.210395    -2.028072    -5.694147
O     5.556930    -2.794273    -6.215818
H     5.282942    -3.584411    -5.698499
H     5.690945    -5.262891     4.746192
O     5.258723    -5.158283     5.624353
H     4.513685    -5.762675     5.638288
H    -3.966439     1.140046     7.009583
O    -3.773996     1.616036     7.853233
H    -4.650192     2.001361     8.114412
H    -1.848926     9.609669    -0.744145
O    -2.709041     9.482950    -0.269202
H    -3.320730     10.110997    -0.656990
H    -5.945160     4.683137    -2.935628
O    -6.853884     4.563751    -3.279506
H    -6.763459     3.861282    -3.956521
H     0.097056    -7.069844    -1.141701
O     0.567059    -7.497579    -0.393609
H    -0.106937    -7.702546     0.257722
H    -7.633701     3.784271    -1.970031
O    -7.894336     3.197333    -1.229685
H    -7.751343     2.288617    -1.569260
H     3.981862    -0.895609     6.986274
O     3.990347     0.068513     6.977266
H     4.802186     0.358796     6.545043
H     2.261763     5.792212    -1.179478
O     3.197455     5.499701    -1.065581
H     3.373901     4.959831    -1.858998
H     6.632970    -5.897047     0.688089
O     6.256624    -6.630201     1.234533
H     5.330002    -6.341511     1.358303
H    -3.861707     4.723545     7.783242
O    -3.294972     4.260855     7.124199
H    -3.488411     3.317431     7.234592
H     5.754511    -7.951381     0.046028
O     5.510161    -8.698029    -0.533337
H     4.657549    -8.430800    -0.925426
H    -0.550125     2.037251     7.694774
O    -1.183354     1.971527     6.959769
H    -2.051837     1.830436     7.356625
H    -6.377045    -0.127825     1.066043
O    -6.697313    -0.211304     0.153210
H    -7.615892    -0.482676     0.171253
H    -5.365472    -3.070398    -0.584703
O    -5.113258    -2.367568     0.040489
H    -5.683902    -1.595204    -0.147200
H     4.321433     5.574483     0.319435
O     4.655610     5.674987     1.224574
H     3.961288     6.185405     1.677022
H    -9.038752    -1.752125    -2.248616
O    -8.490615    -1.550365    -1.462830
H    -8.617324    -2.287136    -0.825110
H    -5.522183     3.464642    -5.524676
O    -6.039087     2.753908    -5.109549
H    -5.372193     2.168619    -4.696099
H     3.184129    -0.892588    -5.655604
O     2.327968    -1.013020    -6.120692
H     2.413518    -1.861995    -6.594271
H     8.118226    -1.352654    -6.030924
O     8.126679    -2.216341    -5.573887
H     7.270799    -2.616943    -5.824651
H     7.623398     0.987746    -6.312080
O     7.434698     0.139079    -6.724660
H     6.453363     0.088794    -6.760941
H    -7.853775    -3.699297     0.934323
O    -8.532404    -3.592498     0.250156
H    -8.434227    -4.352021    -0.351484
H    -2.404466     8.731872     1.294562
O    -2.252960     8.143499     2.047605
H    -1.482755     7.590673     1.824366
H    -4.439271     6.430226     3.499452
O    -4.609987     6.855965     2.642928
H    -3.846957     7.442313     2.502936
H     3.403820     3.442521    -3.577896
O     3.250243     4.411685    -3.484320
H     2.285300     4.476036    -3.591726
H    -6.111306    -1.612013    -3.438486
O    -6.193443    -2.190977    -2.654241
H    -6.977563    -1.884270    -2.145501
H     6.475020     1.048270     4.737665
O     6.081248     1.586120     5.441322
H     6.267672     2.505206     5.150245
H     1.364162     1.717544    -5.822189
O     1.170551     1.121822    -5.067540
H     1.533640     0.258689    -5.337710
H    -2.480806     2.958956     10.486078
O    -2.268199     2.051502     10.212545
H    -2.866362     1.851548     9.480615
H     7.634976    -0.499496     3.081167
O     6.884671     0.075637     3.249816
H     6.192365    -0.523558     3.631298
H    -5.651825    -8.060356    -0.696591
O    -4.916987    -8.128726    -0.050306
H    -4.920589    -7.311413     0.471468
H    -5.174142    -0.124893    -4.712031
O    -5.790993    -0.836940    -4.951468
H    -6.629461    -0.395706    -5.149192
H     1.892075    -0.203226    -7.514730
O     1.690213     0.268659    -8.358498
H     2.266489    -0.136691    -9.011886
H     4.874065    -1.397396    -9.304897
O     3.948756    -1.168639    -9.586639
H     3.928040    -1.286957    -10.535619
H     7.572639    -2.569733     4.198563
O     7.720980    -2.610472     3.239443
H     7.220095    -3.396226     2.968968
H     6.805943    -5.794978     2.690227
O     6.835106    -5.178003     3.447480
H     7.726859    -5.254453     3.850593
H    -1.817148     8.943265     3.498235
O    -1.569144     9.247989     4.396491
H    -2.417793     9.380394     4.852271
H    -7.387668     1.560854    -5.246555
O    -7.962000     0.816523    -5.000993
H    -8.863910     1.215695    -4.924826
H     6.928338    -1.086654    -8.405880
O     6.346360    -1.807819    -8.669124
H     6.119170    -2.257889    -7.837111
H    -1.676304     6.235873    -7.021255
O    -2.073606     5.410410    -6.747436
H    -1.824864     5.279861    -5.783880
H     0.008543     3.307554     9.024381
O     0.205948     2.387798     9.279320
H    -0.592113     2.123606     9.786273
H     6.761129    -2.783948    -2.704874
O     6.232771    -3.527839    -2.359847
H     6.699585    -4.338817    -2.609624
H    -4.073562    -3.078926    -4.940204
O    -4.227944    -2.966259    -5.904973
H    -4.775985    -2.173743    -5.960969
H     1.987702     2.181472     8.465758
O     2.651222     2.293687     7.775317
H     3.073704     1.423589     7.660169
H    -6.901749    -5.207751    -1.390581
O    -7.817520    -5.477143    -1.635516
H    -7.951547    -5.075172    -2.518632
H    -3.821535     5.251769     5.699708
O    -3.789230     6.020026     5.108673
H    -2.855397     6.314899     5.202426
H    -7.880701     0.081417    -1.961550
O    -7.391362     0.805190    -2.375348
H    -7.620051     0.793887    -3.328508
H     5.842845     0.127538     0.410751
O     5.620704     0.849022     1.031463
H     6.131547     0.654794     1.844147
H    -6.207985     3.306474     7.400156
O    -6.079430     2.788318     8.228746
H    -6.679639     2.026881     8.140869
H     2.300243    -8.089317    -0.823707
O     2.962010    -8.059093    -1.533417
H     2.741813    -8.780319    -2.140250
H    -2.741109    -3.967276    -6.194090
O    -1.986662    -4.532660    -5.962903
H    -1.710479    -4.241419    -5.065659
H    -5.637616     3.756842     5.312743
O    -6.286350     4.153198     5.930406
H    -6.123496     5.097354     5.916438
H    -1.013266    -7.119415    -3.160627
O    -0.541108    -6.447648    -2.634357
H     0.366454    -6.380027    -3.014599
H     4.451025     2.014608     5.128799
O     3.509171     2.252875     5.008859
H     3.125237     2.270093     5.890899
H     4.115451     4.655500     6.300646
O     4.196584     5.385165     5.682045
H     3.628314     5.144656     4.911612
H     2.770288     3.614784     3.922815
O     2.592721     4.554851     3.756896
H     2.472442     4.653377     2.790537
H     9.398127     0.208902    -1.073968
O     8.592870     0.371868    -0.579108
H     8.416702    -0.447149    -0.087013
H    -2.093199     5.318216     10.652846
O    -2.814728     4.689292     10.884648
H    -3.033127     4.866989     11.799728
H     7.977034    -3.016572     0.327206
O     8.398425    -2.170109     0.580259
H     8.334142    -2.161191     1.542605
H     5.376297     3.663139     3.523975
O     6.032591     3.928236     4.190300
H     5.620127     4.646540     4.691907
H    -4.201560     5.019502     9.787895
O    -4.834863     5.170053     9.065988
H    -5.446631     4.421348     9.064023
H    -7.006212    -3.484517    -3.480206
O    -7.626845    -4.096354    -3.928349
H    -7.105963    -4.538682    -4.630528
H     0.035186     6.127530     10.771860
O    -0.829709     6.458371     10.524952
H    -0.714597     6.888883     9.658528
H     2.592146     1.491716    -4.105297
O     3.470692     1.844446    -3.866895
H     3.791159     1.329960    -3.096272
H    -6.964542    -0.222469     7.224607
O    -7.473038     0.556103     7.504906
H    -8.096773     0.739000     6.801161
H    -2.733459    -9.878125    -0.825124
O    -2.672743    -8.936644    -0.987075
H    -3.578017    -8.571088    -0.744490
H    -10.066654     3.068977    -4.892409
O    -10.183315     2.151521    -4.611496
H    -10.398671     2.235599    -3.661682
H    -2.060185    -3.027551     4.617243
O    -2.934539    -3.468069     4.687619
H    -2.928431    -4.086135     3.931282
H    -0.372999    -7.833775     2.472437
O     0.448304    -7.762677     2.984811
H     1.171188    -8.052896     2.383451
H     6.719111    -2.371247     6.390394
O     7.164433    -3.083655     5.926869
H     6.533841    -3.817671     5.897796
H    -5.263585    -2.006651     6.948466
O    -5.940085    -1.508654     6.464752
H    -5.924458    -1.885968     5.555657
H     0.837357     3.027723    -7.113807
O     1.755042     2.697074    -7.170247
H     1.741067     1.949453    -7.795970
H    -3.949604     8.753867     6.674668
O    -3.947725     8.751424     5.717304
H    -4.073105     7.823833     5.449855
H    -2.058572     10.309505    -2.736750
O    -2.960512     10.490698    -3.037927
H    -2.889592     11.124352    -3.751181
H     9.419135    -4.065839     4.042992
O     9.130623    -4.744197     4.661455
H     8.711442    -4.269779     5.390444
H    -0.730707    -6.001930    -5.837953
O    -0.027153    -6.568079    -5.504080
H     0.808356    -6.107262    -5.722571
H     1.828742     8.272310     0.663607
O     1.524899     8.593815    -0.213849
H     2.339211     8.631927    -0.744869
H     3.499627     2.925381    -6.662984
O     4.327562     2.635608    -6.254023
H     4.082837     2.362109    -5.344988
H     3.735863     7.121910    -1.231533
O     3.941439     8.057599    -1.445287
H     4.310035     8.001382    -2.338858
H     4.396590    -0.012072    -7.912059
O     4.774102     0.134746    -7.042904
H     4.592162     1.066729    -6.799725
H     6.034834     1.930887    -0.477099
O     6.599760     2.123667    -1.239237
H     7.424699     1.644699    -1.045501
H     6.696003    -8.424111    -1.625631
O     7.338993    -8.212708    -2.359273
H     7.698177    -9.050079    -2.647265
H    -5.297461    -5.794487    -5.401913
O    -5.914916    -5.122578    -5.716376
H    -5.364014    -4.354467    -5.953884
H     0.689036     7.172252     7.601217
O    -0.212312     7.199346     7.961197
H    -0.768277     7.213858     7.144014
H    -8.893818    -2.840125    -4.095347
O    -9.414249    -2.031578    -3.927835
H    -9.128755    -1.366994    -4.558527
H    -2.405138    -5.993306    -2.139030
O    -3.282756    -5.705796    -2.408029
H    -3.470669    -6.081912    -3.293035
H    -2.982391    -5.905912    -5.404935
O    -3.582100    -6.515217    -4.932084
H    -3.100128    -7.335479    -4.764962
H    -1.389753     3.721478    -6.981233
O    -0.849101     2.965952    -6.710448
H    -1.086211     2.180581    -7.259996
H    -0.203272     0.412080    -8.214316
O    -1.099061     0.647470    -7.930270
H    -1.273910     0.123768    -7.132341
H    -10.420304     4.046940    -2.728162
O    -10.487277     3.268457    -2.159728
H    -9.657592     3.242295    -1.651386
H     4.584618     4.078670     1.719240
O     4.377451     3.157473     1.998183
H     5.093368     2.582198     1.715864
H     6.488285     1.394817    -4.221544
O     6.186108     0.770828    -3.526969
H     6.216978     1.266996    -2.683617
H     9.638009    -2.227948    -0.932645
O     9.914440    -2.011852    -1.831947
H     9.113390    -1.675137    -2.275766
H     9.974062    -3.322503    -3.102149
O     9.705838    -3.975082    -3.775845
H     9.312111    -3.468339    -4.496665
H    -7.692108    -8.580253    -1.658851
O    -6.954847    -7.985367    -1.787960
H    -7.332904    -7.072642    -1.777679
H     4.162067     6.077788    -3.822727
O     4.823013     6.779208    -3.738110
H     5.659474     6.325563    -3.601242
H     0.101860    -8.175708    -5.211919
O     0.124859    -9.158239    -5.079703
H     0.276835    -9.522702    -5.951684
H    -2.326735    -8.678351    -2.710941
O    -2.093518    -8.414031    -3.620674
H    -1.447276    -9.032727    -3.979857
H     2.191908    -10.819409    -3.485633
O     2.147264    -9.864420    -3.470586
H     1.358097    -9.597188    -3.992102
H     6.837564     3.327687    -4.577243
O     6.895458     2.648952    -5.277584
H     6.101860     2.781825    -5.818194
H    -3.555263    -3.725134     7.725225
O    -3.668604    -2.937091     7.195332
H    -3.418588    -3.176556     6.276754
H    -0.635135    -3.367457    -6.721532
O    -0.004997    -2.635857    -6.729310
H    -0.487045    -1.860431    -6.388064
H     0.651440     0.459323     8.753436
O     0.658275    -0.255850     8.113200
H    -0.264310    -0.544170     8.026633
H    -5.833474     7.362830    -4.248396
O    -6.336403     6.743659    -4.809052
H    -6.622911     6.012798    -4.217539
H    -4.278070     9.098731    -3.261411
O    -4.813372     8.302391    -3.154656
H    -4.404449     7.823206    -2.415837
H    -9.710696     5.790839    -4.640506
O    -10.243677     4.986037    -4.476402
H    -11.124511     5.186463    -4.794869
H     2.774855     6.514936     6.139040
O     1.814810     6.611009     6.237553
H     1.471388     5.697603     6.135466
H     4.806142     8.545595     0.081256
O     5.124149     8.546744     1.001989
H     5.531444     7.682622     1.132832
H     4.148021    -7.430604    -4.339572
O     3.389274    -7.714050    -4.881469
H     3.109325    -8.555658    -4.506013
H     0.381544     8.657947     4.233760
O     1.059455     8.013550     4.005530
H     1.286428     7.521036     4.820231
H     5.237404     4.188916    -3.159883
O     6.198897     4.159043    -3.107629
H     6.408338     3.578073    -2.359627
H    -2.568524    -1.546807     7.576833
O    -2.058036    -0.753424     7.796174
H    -2.683685    -0.127223     8.170752
H    -9.027331     7.931149    -4.141781
O    -8.964350     7.346299    -4.898374
H    -8.007293     7.182568    -5.034060
H     3.361551    -8.896027     1.907995
O     2.664045    -8.399661     1.447167
H     3.051569    -7.509619     1.458249
H     3.587821     8.170510     1.827380
O     2.797826     7.606438     1.940417
H     2.351710     7.842511     2.766510
N     4.983116    -8.798941     3.174216
H     4.707876    -8.176966     3.856632
H     5.677534    -8.331514     2.692506
