24

H     3.175161    -2.592237    -8.477340
O     3.111583    -3.059239    -7.632293
H     3.996685    -3.002872    -7.234567
H     5.173828    -2.011200    -5.605043
O     5.547658    -2.757422    -6.144064
H     5.259183    -3.563584    -5.645633
H     8.101087    -1.249737    -5.970864
O     8.195982    -2.164287    -5.628765
H     7.296763    -2.527722    -5.781312
H     7.529265     1.136008    -6.282919
O     7.379400     0.270103    -6.692627
H     6.398448     0.204038    -6.729857
H     4.853044    -1.347200    -9.403436
O     3.920497    -1.132211    -9.645847
H     3.918509    -1.034278    -10.600974
H     6.913045    -1.064613    -8.456205
O     6.380110    -1.834337    -8.696828
H     6.094323    -2.194514    -7.834677
H     10.023386    -3.315602    -2.955563
O     9.871043    -4.003641    -3.638835
H     9.452892    -3.519244    -4.362663
N     8.782684    -3.757643    -8.188914
H     8.869309    -3.267704    -7.359618
H     8.073249    -3.286789    -8.643067
