9
Coordinates from ORCA-job grain_mol_opt.QMRegion
  H   6.68783888654396     -5.91079222987780      2.67042624429584
  O   6.78531393777397     -5.23848170229462      3.37755240197720
  H   7.64752248946399     -5.37682709963165      3.79699810943144
  H   9.17514257623502     -3.85347926083885      4.02539888467006
  O   9.16362941670899     -4.55128650010209      4.70031506322231
  H   8.67869595674360     -4.13173881833132      5.42936056178526
  O   11.94931150859095     -5.02342760011492      5.43697624112850
  H   12.15446486865405     -5.92285948195094      5.16610297912507
  H   11.01572627207718     -4.91243255299978      5.19466254656740
