603

H     0.182339     3.005244    -0.687089
O     0.707068     2.336655    -1.178037
H     1.645878     2.471003    -0.907622
H    -0.065428    -1.315153     3.164367
O     0.322776    -0.616092     2.615875
H    -0.158111     0.196540     2.845765
H    -2.413905     2.374462    -0.534252
O    -2.198145     1.908250     0.291019
H    -2.213016     0.959356     0.070088
H    -4.662607     0.514819     2.198315
O    -4.974136    -0.420357     2.218454
H    -4.471314    -0.898106     1.550633
H     0.064801    -0.326995     0.959833
O    -0.135210    -0.096486     0.032027
H     0.198135     0.801696    -0.093686
H    -0.131956    -3.582816     3.802724
O    -0.413458    -2.752033     4.220007
H     0.233855    -2.574961     4.919081
H    -4.897160     2.492844     1.337329
O    -4.254124     2.089177     1.952654
H    -3.413033     2.072503     1.437180
H    -3.274684     3.849916    -2.215140
O    -2.532974     3.258315    -1.982732
H    -2.176159     2.967326    -2.842047
H    -0.111067    -3.826054     0.528621
O     0.226669    -3.005581     0.942150
H    -0.561901    -2.520444     1.253206
H    -2.368155    -1.559956     2.489596
O    -2.179009    -2.029426     1.650667
H    -2.442396    -1.447167     0.918832
H     2.072403    -1.463350    -1.112865
O     2.308001    -1.711494    -0.195062
H     1.521318    -2.139763     0.193160
H    -1.398045     1.803930     1.913127
O    -1.484093     1.410305     2.791641
H    -1.471520     2.126167     3.452792
H     0.212470    -2.733366    -1.550442
O    -0.546419    -2.126045    -1.606190
H    -0.368697    -1.394914    -0.977237
H    -3.429482    -2.965168    -0.361584
O    -2.710789    -3.456814    -0.780771
H    -2.004509    -2.823747    -1.004871
H     2.776014     0.130809     2.932314
O     2.878887    -0.046740     3.894587
H     2.967096     0.848525     4.294679
H    -3.561402     6.339091    -0.558370
O    -3.326976     6.999900    -1.261628
H    -3.188306     7.847520    -0.795222
H     3.898810     0.582291     1.179140
O     2.949501     0.396742     1.298916
H     2.713729    -0.359021     0.723339
H    -5.794077     0.788862    -1.593365
O    -4.883835     1.116490    -1.461296
H    -4.998367     1.947348    -0.955008
H    -1.232567     5.379137     2.194121
O    -1.854319     4.628601     2.082794
H    -1.928446     4.213881     2.947488
H     3.479050     2.755915     0.409329
O     3.229301     2.707875    -0.529043
H     3.563997     1.864858    -0.876405
H     1.501754    -4.725072    -2.225838
O     1.564454    -3.945127    -1.656256
H     2.355939    -3.481819    -2.011562
H    -0.933703    -0.123792    -2.539988
O    -0.300020     0.527533    -2.867436
H    -0.041924     1.115591    -2.134316
H     1.715010    -4.702679    -0.154822
O     1.826727    -5.335984     0.590397
H     1.365827    -6.150314     0.299507
H    -1.224103    -3.307054    -2.855385
O    -1.049902    -3.993929    -3.512457
H    -0.917974    -4.837327    -3.038962
H    -2.785996     3.296131     4.702265
O    -1.804783     3.297695     4.665982
H    -1.508150     2.900969     5.503237
H     0.947696     5.034571     4.055618
O     0.000872     5.263207     4.109683
H    -0.467224     4.459199     4.372013
H    -1.715317    -4.682501    -0.337841
O    -0.947421    -5.220031    -0.053750
H    -1.290432    -5.904207     0.530276
H    -3.952673     5.780010    -2.610372
O    -4.300340     4.942216    -2.933578
H    -4.150325     4.902623    -3.902519
H    -2.413696    -3.713308     1.966770
O    -2.427147    -4.616192     2.346289
H    -1.486025    -4.849153     2.486158
H    -4.693475    -3.034586    -2.866823
O    -3.840847    -3.270216    -3.270927
H    -3.506800    -4.058119    -2.799323
H     0.341912     1.377101     4.613610
O     0.844459     2.137431     4.275230
H     0.891657     2.800267     4.978553
H    -4.640296    -5.221374    -1.525728
O    -5.343778    -4.870448    -0.952759
H    -5.125220    -5.216152    -0.066500
H     2.339086    -6.514964    -4.008478
O     2.002530    -6.184019    -3.155636
H     2.441677    -6.752259    -2.490715
H     0.466344    -3.419498    -3.984276
O     1.266592    -3.052288    -4.411685
H     0.943098    -2.684982    -5.260568
H     1.975664    -1.753952     2.991267
O     2.134251    -2.685274     2.778085
H     1.447429    -2.904763     2.113953
H    -3.021105    -1.856909    -3.187540
O    -2.602791    -0.968944    -3.128154
H    -3.264077    -0.330787    -3.451489
H    -3.212592     4.943921     1.070774
O    -3.996688     5.312388     0.616592
H    -4.412899     5.871298     1.321009
H     0.869427     2.246088     2.584237
O     0.967908     2.237313     1.612836
H     1.696932     1.616357     1.449531
H     0.159950     5.630271    -0.779757
O     0.677979     6.291977    -1.292660
H     0.817357     7.095064    -0.741142
H     0.316509     7.026351     2.562580
O    -0.046269     6.640543     1.748043
H     0.619631     5.971345     1.487873
H    -2.476111     0.197309     3.353006
O    -2.692670    -0.615229     3.862700
H    -1.930163    -0.648136     4.482307
H    -0.883775     0.555692     6.031427
O    -0.609720     0.033504     5.258856
H     0.107168    -0.565456     5.546379
H     0.732501    -5.005043     2.008567
O     0.192833    -5.113434     2.814927
H     0.342528    -6.031948     3.091214
H    -2.087272    -8.118108     0.499049
O    -1.764701    -7.625933     1.281377
H    -2.550737    -7.314826     1.737975
H    -0.419191     6.827545    -2.350712
O    -1.168563     7.242613    -2.849413
H    -1.956693     7.114857    -2.283360
H    -1.134412     4.284197     0.562342
O    -0.763974     4.342679    -0.334898
H    -1.471379     4.094507    -0.964344
H    -4.415626     2.722369     3.512032
O    -4.412102     2.897275     4.475952
H    -4.490618     2.015817     4.889292
H     2.046798    -3.576975     4.261995
O     1.987894    -4.045817     5.117477
H     2.493888    -3.503660     5.744287
H     4.699391    -3.194846     0.847535
O     4.535965    -3.124721    -0.118870
H     3.674838    -2.651224    -0.202184
H    -2.728192    -0.788560    -1.335483
O    -3.053603    -0.517255    -0.460617
H    -3.857182     0.004521    -0.667836
H    -1.633273    -0.811552    -4.618172
O    -1.125147    -0.600867    -5.423011
H    -0.419141     0.001921    -5.142202
H     1.788646    -1.746847    -3.367610
O     1.879713    -0.997074    -2.748065
H     1.099139    -0.423868    -2.879127
H     3.679092    -3.118320     2.561571
O     4.638884    -3.343837     2.486789
H     4.697938    -4.303070     2.618147
H     3.456425    -6.115904     3.149120
O     3.808632    -5.918427     2.246795
H     3.068347    -5.577816     1.704494
H    -3.363454     1.561904    -4.167037
O    -4.208495     1.095430    -3.972141
H    -4.421980     1.235114    -3.014653
H    -5.105761     4.102815     0.065998
O    -5.540565     3.234175    -0.028581
H    -6.471658     3.346454    -0.312668
H     6.730956    -1.184804    -1.369815
O     5.959839    -1.035818    -0.816277
H     5.544799    -1.904262    -0.613651
H     4.595859    -3.185489    -2.461874
O     3.726123    -3.019999    -2.876203
H     3.729982    -3.642122    -3.629533
H     4.455976    -2.272011     5.626338
O     4.117567    -2.735291     6.422760
H     4.455977    -3.639302     6.344227
H    -0.770848     6.335468     5.053272
O    -1.368246     6.911473     5.590438
H    -1.386934     7.786214     5.144524
H     4.690589    -0.148053    -1.472588
O     3.920368     0.389947    -1.735901
H     3.229245    -0.214847    -2.061154
H    -0.777120     4.477535    -4.050263
O    -1.562042     5.016736    -4.259458
H    -1.413714     5.885778    -3.841054
H     0.634289     3.170367    -2.668821
O     0.638886     3.543016    -3.578979
H     0.685926     2.776964    -4.161090
H    -5.360808    -5.230215     1.840490
O    -4.662957    -5.824657     1.486443
H    -3.823345    -5.403655     1.752258
H     7.872507    -1.701088    -4.041897
O     7.616088    -1.384702    -3.142983
H     7.125172    -0.543578    -3.302030
H     3.702676    -5.106229    -5.270095
O     4.465240    -4.727594    -4.793294
H     4.854030    -5.434285    -4.244993
H    -3.774926     0.002918     4.951317
O    -4.375365     0.467326     5.584072
H    -5.032385    -0.191844     5.880377
H     3.483342    -5.954214    -0.494626
O     4.354001    -5.705085    -0.816560
H     4.426788    -4.741744    -0.677544
H     4.985469    -0.358988    -4.166940
O     4.452574    -1.074866    -4.551867
H     4.130448    -1.655600    -3.830157
H    -1.192149     1.524786    -3.935271
O    -1.843923     2.143794    -4.320465
H    -1.492512     2.470694    -5.170951
H     4.900034    -6.336855    -2.292570
O     5.231496    -6.665054    -3.157571
H     6.052278    -7.141216    -2.970978
H     8.748576    -5.093920    -2.912791
O     8.060669    -5.511866    -2.350427
H     8.098952    -6.469509    -2.447986
H     2.314992     4.707794     0.428325
O     1.738646     4.691089     1.201690
H     1.384771     3.769862     1.284508
H    -4.397135    -2.655409     4.262888
O    -5.293166    -2.320875     4.061528
H    -5.161114    -1.542005     3.481532
H    -5.833644    -3.237136     1.355112
O    -6.291538    -3.793447     2.028036
H    -6.102773    -3.352312     2.875601
H     1.686780     3.485288     6.847156
O     1.060129     3.995570     6.312627
H     0.278133     4.148220     6.885655
H     5.015413    -2.154743     3.618390
O     5.034923    -1.433273     4.279012
H     4.220293    -0.880995     4.121994
H     2.423172    -5.566826     4.864616
O     2.805942    -6.450559     4.607944
H     2.062685    -7.035822     4.438914
H     2.251805    -4.563628    -6.768543
O     2.086795    -5.048760    -5.950126
H     1.821037    -4.355200    -5.297399
H     6.450498    -4.103047    -0.495722
O     7.206716    -4.500827    -0.032773
H     7.713754    -4.924764    -0.753013
H    -1.726694     4.496561     7.690471
O    -0.827213     4.600460     8.072978
H    -0.650302     5.560504     8.091811
H    -5.163300     5.621514    -5.603146
O    -4.550739     4.862035    -5.620008
H    -3.797364     5.076603    -6.190716
H     3.262865    -2.578827    -8.427730
O     3.180012    -3.108526    -7.623943
H     4.057556    -3.077787    -7.197426
H    -0.708842     8.789276    -2.313008
O    -0.587235     9.621204    -1.799139
H     0.177209     9.452622    -1.223592
H     2.080163    -0.902132     5.216139
O     1.511755    -1.427894     5.807952
H     1.606435    -1.077415     6.703075
H     5.192923    -2.054322    -5.692024
O     5.540812    -2.821718    -6.211376
H     5.271771    -3.610206    -5.689160
H     5.725372    -5.192401     4.701016
O     5.205428    -5.105803     5.528968
H     4.486137    -5.740985     5.448511
H    -3.963799     1.140496     7.019064
O    -3.771350     1.621065     7.860175
H    -4.648291     2.004449     8.121443
H    -1.898561     9.579985    -0.781086
O    -2.756745     9.452941    -0.302804
H    -3.372201     10.075698    -0.693174
H    -5.981868     4.624859    -2.939529
O    -6.890451     4.502185    -3.281765
H    -6.800449     3.794279    -3.954013
H     0.115548    -7.093164    -1.102547
O     0.583808    -7.524116    -0.354573
H    -0.092373    -7.717845     0.297731
H    -7.664269     3.725619    -1.965366
O    -7.918874     3.141165    -1.221089
H    -7.774637     2.231383    -1.559470
H     3.992250    -0.865567     6.985329
O     3.996972     0.098558     6.971926
H     4.806539     0.389831     6.536120
H     2.225534     5.776149    -1.208112
O     3.162843     5.488180    -1.095422
H     3.339153     4.944759    -1.886453
H     6.572019    -5.923218     0.688087
O     6.208088    -6.658649     1.226272
H     5.303124    -6.384159     1.454614
H    -3.871093     4.728035     7.774908
O    -3.304137     4.264269     7.116935
H    -3.493640     3.320651     7.232211
H     5.790975    -7.944943     0.166234
O     5.504209    -8.636533    -0.467004
H     4.672552    -8.316346    -0.860376
H    -0.549107     2.053886     7.691210
O    -1.184190     1.982913     6.958372
H    -2.050976     1.839805     7.358087
H    -6.386513    -0.165437     1.089251
O    -6.705460    -0.259027     0.177205
H    -7.624492    -0.528628     0.195515
H    -5.367025    -3.109224    -0.553674
O    -5.115135    -2.407348     0.072299
H    -5.687426    -1.635854    -0.116491
H     4.289799     5.573624     0.286432
O     4.626214     5.680247     1.190059
H     3.930824     6.189656     1.641973
H    -9.040862    -1.805738    -2.222337
O    -8.503626    -1.606928    -1.427562
H    -8.625887    -2.344468    -0.791369
H    -5.563805     3.393492    -5.521883
O    -6.077298     2.682471    -5.103861
H    -5.406135     2.107142    -4.684039
H     3.162422    -0.926889    -5.653699
O     2.305797    -1.053016    -6.116510
H     2.393366    -1.903992    -6.585813
H     8.097056    -1.369680    -6.039942
O     8.110407    -2.231465    -5.579406
H     7.255033    -2.636108    -5.825273
H     7.592741     0.967181    -6.330822
O     7.406291     0.116065    -6.739403
H     6.425014     0.061852    -6.772481
H    -7.847801    -3.742059     0.979614
O    -8.529526    -3.644279     0.297105
H    -8.428213    -4.407328    -0.298938
H    -2.445712     8.709856     1.263271
O    -2.289693     8.126109     2.019001
H    -1.518275     7.574796     1.796168
H    -4.465917     6.411358     3.484444
O    -4.640665     6.832715     2.626630
H    -3.879964     7.420790     2.481459
H     3.370859     3.419258    -3.597943
O     3.213911     4.388326    -3.508923
H     2.248316     4.448165    -3.613850
H    -6.082998    -1.547893    -3.393538
O    -6.229315    -2.207868    -2.687905
H    -6.989804    -1.895147    -2.149116
H     6.471854     1.076614     4.721496
O     6.077917     1.617076     5.423172
H     6.260558     2.535174     5.126774
H     1.332036     1.675802    -5.828724
O     1.142893     1.083082    -5.070674
H     1.508126     0.219913    -5.337432
H    -2.476560     2.982113     10.482748
O    -2.261482     2.073950     10.213582
H    -2.860258     1.868239     9.483740
H     7.633097    -0.474829     3.069787
O     6.881199     0.098583     3.237893
H     6.192451    -0.502570     3.622407
H    -5.632715    -8.103449    -0.639198
O    -4.896768    -8.166463     0.006271
H    -4.901725    -7.346569     0.524367
H    -5.102163    -0.040009    -4.800110
O    -5.533359    -0.881256    -5.035436
H    -6.379747    -0.665565    -5.450824
H     1.863059    -0.251370    -7.513104
O     1.657598     0.215134    -8.358985
H     2.234127    -0.191221    -9.011464
H     4.845294    -1.443086    -9.304890
O     3.918317    -1.219865    -9.585615
H     3.896071    -1.341740    -10.534084
H     7.581126    -2.542159     4.196724
O     7.725723    -2.582740     3.237082
H     7.234483    -3.376714     2.970583
H     6.747643    -5.877444     2.700469
O     6.808477    -5.198576     3.398098
H     7.685974    -5.277701     3.813722
H    -1.853425     8.934347     3.464242
O    -1.604536     9.244612     4.360427
H    -2.452662     9.375746     4.817519
H    -7.391056     1.611346    -5.175498
O    -7.961213     0.865408    -4.916607
H    -8.866477     1.262434    -4.886003
H     6.900216    -1.119726    -8.412842
O     6.320932    -1.844829    -8.671237
H     6.097112    -2.291190    -7.836286
H    -1.727702     6.177181    -7.041518
O    -2.120332     5.350720    -6.764095
H    -1.870452     5.225520    -5.800112
H     0.007719     3.333014     9.013118
O     0.209462     2.415471     9.272609
H    -0.586435     2.150540     9.782472
H     6.754105    -2.788753    -2.704611
O     6.227928    -3.533635    -2.358342
H     6.699221    -4.343608    -2.602177
H    -4.041231    -3.176033    -4.878470
O    -4.161778    -3.115730    -5.855978
H    -4.541535    -2.227651    -5.959253
H     1.990092     2.211213     8.455060
O     2.651539     2.322939     7.762577
H     3.076972     1.453883     7.650200
H    -6.895558    -5.263791    -1.331681
O    -7.810403    -5.541450    -1.573773
H    -7.947377    -5.140315    -2.456607
H    -3.838104     5.246037     5.688711
O    -3.810308     6.011864     5.094348
H    -2.877263     6.310431     5.183907
H    -7.930334     0.058445    -1.895345
O    -7.397252     0.755624    -2.298773
H    -7.608953     0.783728    -3.262568
H     5.832514     0.132964     0.400679
O     5.609535     0.856792     1.018435
H     6.122853     0.667960     1.830892
H    -6.212664     3.300239     7.404715
O    -6.080454     2.786656     8.235645
H    -6.677790     2.022437     8.152740
H     2.303665    -8.091502    -0.801920
O     2.978328    -8.079720    -1.500439
H     2.754467    -8.797859    -2.109107
H    -2.742305    -4.023618    -6.165225
O    -1.992569    -4.594541    -5.928798
H    -1.714360    -4.293924    -5.035210
H    -5.649582     3.742235     5.313606
O    -6.297949     4.139155     5.931404
H    -6.139029     5.083885     5.911804
H    -1.003822    -7.156927    -3.119163
O    -0.533117    -6.483379    -2.594570
H     0.373329    -6.411664    -2.977754
H     4.445530     2.037736     5.112632
O     3.502601     2.272519     4.994078
H     3.120731     2.291766     5.876947
H     4.102764     4.682948     6.272375
O     4.179133     5.410229     5.650359
H     3.610083     5.163582     4.882384
H     2.755491     3.625768     3.903347
O     2.573867     4.564337     3.733271
H     2.450732     4.657484     2.766707
H     9.383882     0.220825    -1.093247
O     8.578745     0.383128    -0.598079
H     8.407472    -0.433855    -0.100328
H    -2.097403     5.343672     10.636979
O    -2.815948     4.713211     10.873894
H    -3.032471     4.894580     11.788687
H     7.980647    -2.998175     0.325897
O     8.399364    -2.148669     0.575426
H     8.336036    -2.138872     1.537871
H     5.360333     3.681849     3.497635
O     6.017395     3.953312     4.160681
H     5.603054     4.672111     4.659987
H    -4.206945     5.032366     9.778988
O    -4.842958     5.177169     9.058305
H    -5.451508     4.425854     9.061184
H    -6.956149    -3.529022    -3.524301
O    -7.520095    -4.209998    -3.968852
H    -6.894652    -4.742890    -4.518178
H     0.027990     6.161333     10.746665
O    -0.838672     6.488175     10.500611
H    -0.727420     6.914416     9.631534
H     2.565180     1.463159    -4.113715
O     3.443280     1.820006    -3.879714
H     3.767324     1.310649    -3.107083
H    -6.956148    -0.232431     7.248243
O    -7.467403     0.545075     7.526517
H    -8.092865     0.722975     6.823013
H    -2.709547    -9.911356    -0.764669
O    -2.651579    -8.970462    -0.930739
H    -3.557779    -8.606467    -0.688445
H    -10.099326     2.988298    -4.876711
O    -10.214776     2.071557    -4.594257
H    -10.426933     2.156007    -3.644605
H    -2.047321    -3.031676     4.642522
O    -2.919953    -3.475479     4.717354
H    -2.913838    -4.096549     3.963809
H    -0.143532    -7.993154     2.533364
O     0.683324    -7.777494     2.977861
H     1.401088    -8.073072     2.390260
H     6.729036    -2.338410     6.391190
O     7.179950    -3.049014     5.930341
H     6.552624    -3.786375     5.897593
H    -5.249178    -2.011380     6.976542
O    -5.929358    -1.518980     6.492271
H    -5.913794    -1.900067     5.584724
H     0.796798     2.977245    -7.125166
O     1.715881     2.650240    -7.182918
H     1.702809     1.899384    -7.804645
H    -3.977212     8.752022     6.647156
O    -3.978043     8.745347     5.689811
H    -4.100200     7.816025     5.426809
H    -2.115846     10.269099    -2.776522
O    -3.019245     10.446210    -3.075747
H    -2.952456     11.075534    -3.793219
H     9.433374    -4.025110     4.043646
O     9.158578    -4.701189     4.670648
H     8.729072    -4.226873     5.393521
H    -0.732930    -6.052337    -5.800207
O    -0.026088    -6.615093    -5.467151
H     0.806737    -6.150657    -5.689001
H     1.787634     8.263529     0.623798
O     1.480503     8.580048    -0.254295
H     2.293238     8.618203    -0.787677
H     3.460544     2.887174    -6.680772
O     4.290723     2.602415    -6.272738
H     4.049363     2.332726    -5.361582
H     3.694327     7.111282    -1.270512
O     3.896162     8.046681    -1.489341
H     4.262467     7.987350    -2.383644
H     4.365392    -0.052185    -7.917925
O     4.745158     0.099932    -7.050683
H     4.560015     1.032272    -6.810967
H     6.015323     1.932655    -0.496820
O     6.577713     2.124013    -1.261220
H     7.404752     1.648731    -1.067134
H     6.708170    -8.434938    -1.577211
O     7.341017    -8.225672    -2.316873
H     7.710480    -9.059914    -2.601178
H    -5.157283    -5.926627    -5.455854
O    -5.831115    -5.301612    -5.771593
H    -5.305506    -4.495996    -5.971604
H     0.669836     7.192953     7.569477
O    -0.230694     7.218775     7.931657
H    -0.788702     7.226894     7.115704
H    -9.062236    -3.030690    -3.960137
O    -9.609999    -2.253175    -3.751192
H    -9.335063    -1.603368    -4.407992
H    -2.396496    -6.031354    -2.099746
O    -3.277957    -5.752919    -2.365936
H    -3.465972    -6.129777    -3.250096
H    -2.988138    -5.957041    -5.363064
O    -3.592816    -6.565961    -4.894929
H    -3.105474    -7.381286    -4.718633
H    -1.432344     3.663265    -6.990275
O    -0.887093     2.911253    -6.718789
H    -1.124413     2.122146    -7.262729
H    -0.236513     0.351800    -8.209835
O    -1.132618     0.585086    -7.925371
H    -1.304350     0.065226    -7.124152
H    -10.452870     3.973173    -2.717132
O    -10.518111     3.202120    -2.138480
H    -9.683852     3.178577    -1.637752
H     4.562745     4.085561     1.692811
O     4.359633     3.165188     1.977163
H     5.076671     2.590829     1.695746
H     6.461402     1.380495    -4.239408
O     6.163432     0.758513    -3.541327
H     6.194346     1.258571    -2.700220
H     9.633423    -2.214260    -0.940509
O     9.906429    -2.003567    -1.842279
H     9.103339    -1.670221    -2.284909
H     9.967650    -3.318885    -3.105002
O     9.701481    -3.975438    -3.775929
H     9.303301    -3.473092    -4.497430
H    -7.671639    -8.638237    -1.585286
O    -6.938877    -8.041596    -1.731554
H    -7.319785    -7.129519    -1.715150
H     4.118086     6.056211    -3.857439
O     4.776725     6.760513    -3.778555
H     5.615092     6.310611    -3.640979
H     0.109666    -8.218727    -5.167140
O     0.136945    -9.201010    -5.030207
H     0.288361    -9.568586    -5.901015
H    -2.311983    -8.717463    -2.659590
O    -2.085332    -8.457555    -3.572077
H    -1.435554    -9.073699    -3.929444
H     2.211186    -10.847794    -3.439954
O     2.161216    -9.893349    -3.420561
H     1.373012    -9.628387    -3.945492
H     6.802159     3.312634    -4.605479
O     6.861199     2.631154    -5.303104
H     6.065370     2.758067    -5.841888
H    -3.531069    -3.719466     7.757779
O    -3.650631    -2.934899     7.224112
H    -3.401110    -3.177340     6.306206
H    -0.649954    -3.421036    -6.698491
O    -0.022753    -2.687285    -6.711623
H    -0.506574    -1.911957    -6.371970
H     0.660411     0.486824     8.755004
O     0.669061    -0.231696     8.118611
H    -0.252323    -0.524492     8.034985
H    -5.884882     7.299452    -4.263326
O    -6.386577     6.676464    -4.820556
H    -6.667877     5.945328    -4.226234
H    -4.331941     9.047455    -3.289149
O    -4.864393     8.249993    -3.177139
H    -4.451726     7.775133    -2.437630
H    -9.755041     5.713416    -4.637960
O    -10.285643     4.909003    -4.465564
H    -11.166765     5.102159    -4.787479
H     2.754445     6.536407     6.105296
O     1.794318     6.629507     6.206051
H     1.454066     5.714340     6.108977
H     4.762523     8.545285     0.032620
O     5.083321     8.552441     0.952372
H     5.493566     7.690217     1.086605
H     4.154358    -7.453270    -4.310564
O     3.395913    -7.744447    -4.849003
H     3.120449    -8.584403    -4.467154
H     0.347936     8.660930     4.195730
O     1.028207     8.018463     3.969096
H     1.258816     7.530447     4.785472
H     5.202523     4.174608    -3.188285
O     6.164283     4.148599    -3.138452
H     6.377739     3.572054    -2.388122
H    -2.554294    -1.538021     7.595868
O    -2.046467    -0.741794     7.810750
H    -2.673826    -0.115921     8.183004
H    -9.078604     7.856841    -4.151889
O    -9.015229     7.271166    -4.907797
H    -8.057968     7.107771    -5.043303
H     3.565220    -8.981854     1.132404
O     2.886319    -8.351932     1.379837
H     3.358037    -7.542990     1.654433
H     3.550149     8.174256     1.783751
O     2.762649     7.607742     1.901445
H     2.317610     7.846005     2.727478
N    -7.766694    -2.266422    -6.230805
H    -7.646351    -3.089377    -5.728125
H    -7.951575    -2.540829    -7.132059
