603

H     0.214112     3.035559    -0.676539
O     0.739067     2.368246    -1.168787
H     1.677087     2.498086    -0.892616
H    -0.066545    -1.306123     3.149092
O     0.325125    -0.604991     2.605645
H    -0.153657     0.207797     2.838921
H    -2.384843     2.411252    -0.541797
O    -2.176554     1.940550     0.282678
H    -2.188539     0.992888     0.057090
H    -4.654158     0.542499     2.168985
O    -4.971043    -0.391140     2.178815
H    -4.460736    -0.867680     1.515814
H     0.077447    -0.305775     0.950378
O    -0.119309    -0.068044     0.023564
H     0.221057     0.828404    -0.095772
H    -0.143468    -3.577071     3.773732
O    -0.425027    -2.747792     4.194168
H     0.219087    -2.576781     4.897746
H    -4.877808     2.526412     1.317954
O    -4.239871     2.116502     1.933954
H    -3.395394     2.100774     1.423826
H    -3.232845     3.899115    -2.218673
O    -2.495730     3.302171    -1.986323
H    -2.133831     3.016352    -2.845264
H    -0.105137    -3.802028     0.499148
O     0.232019    -2.984026     0.918320
H    -0.556789    -2.499400     1.228900
H    -2.366238    -1.540492     2.461361
O    -2.176046    -2.005913     1.620333
H    -2.431177    -1.417462     0.890843
H     2.093569    -1.436257    -1.118003
O     2.322815    -1.688945    -0.199878
H     1.533507    -2.118613     0.181276
H    -1.382095     1.825029     1.908770
O    -1.477395     1.426120     2.783823
H    -1.464759     2.137495     3.449907
H     0.232396    -2.698084    -1.572957
O    -0.524604    -2.087925    -1.627843
H    -0.347165    -1.361529    -0.993352
H    -3.414733    -2.925331    -0.401993
O    -2.698139    -3.416548    -0.824578
H    -1.986276    -2.786117    -1.038519
H     2.779956     0.133643     2.939858
O     2.876292    -0.049734     3.901699
H     2.965598     0.842807     4.307521
H    -3.521900     6.379408    -0.548110
O    -3.282862     7.042727    -1.247302
H    -3.143136     7.887731    -0.776114
H     3.913151     0.591766     1.195688
O     2.962503     0.408608     1.308991
H     2.728114    -0.343628     0.728186
H    -5.763155     0.840659    -1.619631
O    -4.853354     1.168620    -1.491975
H    -4.965800     1.996836    -0.980161
H    -1.210260     5.397236     2.210067
O    -1.833908     4.649256     2.091262
H    -1.913021     4.229753     2.953261
H     3.503650     2.770821     0.435546
O     3.257722     2.728419    -0.504169
H     3.592879     1.886853    -0.854776
H     1.519325    -4.689772    -2.252149
O     1.580615    -3.912555    -1.678337
H     2.375757    -3.450296    -2.026902
H    -0.898510    -0.080692    -2.550415
O    -0.266350     0.573840    -2.873873
H    -0.007203     1.155867    -2.136199
H     1.721687    -4.679790    -0.180337
O     1.826758    -5.316836     0.562594
H     1.366136    -6.128816     0.264156
H    -1.196058    -3.261985    -2.884454
O    -1.027049    -3.943353    -3.548258
H    -0.896714    -4.791614    -3.082469
H    -2.782605     3.304612     4.698953
O    -1.801348     3.303052     4.667288
H    -1.510033     2.901043     5.503971
H     0.959008     5.036111     4.081393
O     0.012405     5.266721     4.131377
H    -0.458782     4.462529     4.387464
H    -1.708373    -4.649769    -0.381383
O    -0.942953    -5.188722    -0.094452
H    -1.290096    -5.877687     0.481572
H    -3.904336     5.832518    -2.604557
O    -4.253261     4.998469    -2.936518
H    -4.094943     4.964933    -3.904197
H    -2.415416    -3.691257     1.925629
O    -2.434184    -4.596031     2.299922
H    -1.494363    -4.833226     2.442648
H    -4.667336    -2.982961    -2.907627
O    -3.815712    -3.214699    -3.315972
H    -3.480219    -4.007143    -2.850721
H     0.340270     1.376846     4.615912
O     0.845378     2.138204     4.283742
H     0.892199     2.796426     4.991447
H    -4.626263    -5.173310    -1.587037
O    -5.334121    -4.821180    -1.019147
H    -5.123455    -5.172985    -0.133035
H     2.359921    -6.471364    -4.040483
O     2.021444    -6.143581    -3.187052
H     2.454820    -6.718221    -2.523984
H     0.496226    -3.372211    -4.009127
O     1.299450    -3.002176    -4.428150
H     0.982538    -2.632140    -5.278451
H     1.974109    -1.749298     2.984074
O     2.130706    -2.679883     2.766544
H     1.447106    -2.893780     2.097362
H    -2.988328    -1.807064    -3.218280
O    -2.569011    -0.919991    -3.152946
H    -3.223839    -0.274490    -3.474347
H    -3.185501     4.973829     1.074469
O    -3.966915     5.346105     0.618408
H    -4.384357     5.903101     1.324026
H     0.881164     2.256075     2.593866
O     0.984178     2.252134     1.622879
H     1.712873     1.630552     1.459999
H     0.199232     5.661606    -0.754185
O     0.720825     6.324667    -1.261407
H     0.860745     7.124198    -0.704645
H     0.341159     7.037868     2.596416
O    -0.018522     6.657425     1.777921
H     0.647304     5.988226     1.517455
H    -2.473999     0.212637     3.333388
O    -2.696230    -0.602332     3.836692
H    -1.937241    -0.641310     4.460486
H    -0.895653     0.550766     6.022015
O    -0.619293     0.032264     5.247775
H     0.094755    -0.570176     5.535613
H     0.726351    -4.991777     1.976196
O     0.181561    -5.102783     2.778855
H     0.327478    -6.023305     3.050786
H    -2.092693    -8.088520     0.434260
O    -1.773704    -7.599842     1.220593
H    -2.561837    -7.291351     1.675193
H    -0.368417     6.869057    -2.321945
O    -1.114360     7.288236    -2.822692
H    -1.905406     7.160323    -2.261026
H    -1.106319     4.311207     0.573400
O    -0.731467     4.373544    -0.321801
H    -1.436095     4.131179    -0.956082
H    -4.407544     2.741736     3.496684
O    -4.409118     2.911271     4.461355
H    -4.491936     2.027767     4.869535
H     2.033097    -3.580032     4.244872
O     1.967304    -4.052933     5.097564
H     2.472683    -3.516545     5.729829
H     4.705219    -3.185682     0.846781
O     4.546994    -3.109195    -0.119983
H     3.687642    -2.633203    -0.205185
H    -2.702561    -0.746963    -1.360022
O    -3.034308    -0.479188    -0.486628
H    -3.833659     0.047342    -0.695511
H    -1.587241    -0.754750    -4.636161
O    -1.081537    -0.536961    -5.439984
H    -0.371669     0.059304    -5.154139
H     1.820707    -1.706182    -3.375648
O     1.910058    -0.959784    -2.751292
H     1.132910    -0.383236    -2.884833
H     3.675800    -3.116359     2.555729
O     4.635340    -3.343697     2.484973
H     4.691184    -4.303958     2.610647
H     3.441603    -6.116223     3.124898
O     3.799185    -5.913744     2.225887
H     3.062449    -5.569104     1.681297
H    -3.320515     1.612071    -4.187505
O    -4.165475     1.139831    -3.998618
H    -4.385239     1.286255    -3.042554
H    -5.072954     4.144135     0.056151
O    -5.510573     3.277761    -0.050073
H    -6.440435     3.396881    -0.333005
H     6.753810    -1.168533    -1.348479
O     5.979992    -1.020405    -0.798419
H     5.561866    -1.889008    -0.602771
H     4.619008    -3.157603    -2.463224
O     3.751887    -2.987090    -2.881067
H     3.758135    -3.605276    -3.637854
H     4.438335    -2.289621     5.629361
O     4.093863    -2.756450     6.421096
H     4.430719    -3.660814     6.339511
H    -0.761161     6.335958     5.077232
O    -1.360145     6.910448     5.614247
H    -1.373584     7.787906     5.173552
H     4.717163    -0.125470    -1.456320
O     3.949441     0.415938    -1.720344
H     3.258986    -0.185538    -2.052987
H    -0.724187     4.529481    -4.036936
O    -1.507476     5.071393    -4.245891
H    -1.357867     5.938098    -3.822741
H     0.676497     3.210330    -2.655388
O     0.684738     3.587687    -3.563594
H     0.735584     2.824831    -4.149613
H    -5.366903    -5.197964     1.775052
O    -4.669263    -5.790243     1.418110
H    -3.829194    -5.375515     1.692475
H     7.908182    -1.673456    -4.017164
O     7.647794    -1.361121    -3.117839
H     7.160199    -0.517869    -3.275006
H     3.735742    -5.058947    -5.287343
O     4.496452    -4.685145    -4.803419
H     4.880397    -5.396693    -4.258048
H    -3.782189     0.012359     4.923772
O    -4.385488     0.475047     5.554953
H    -5.045231    -0.184286     5.844946
H     3.487984    -5.934501    -0.518204
O     4.361590    -5.685797    -0.832280
H     4.435907    -4.723423    -0.688316
H     5.026000    -0.322774    -4.149650
O     4.492151    -1.034123    -4.541426
H     4.165462    -1.619051    -3.825131
H    -1.151251     1.577201    -3.939933
O    -1.802446     2.196324    -4.326958
H    -1.442717     2.529707    -5.171867
H     4.913912    -6.310630    -2.309817
O     5.249662    -6.633946    -3.174837
H     6.067484    -7.114505    -2.986531
H     8.768655    -5.075065    -2.902676
O     8.076709    -5.494083    -2.346149
H     8.112598    -6.451264    -2.449210
H     2.345039     4.725790     0.459777
O     1.763692     4.706399     1.229355
H     1.407580     3.785504     1.305451
H    -4.408233    -2.640586     4.216417
O    -5.302259    -2.302485     4.011354
H    -5.164906    -1.520063     3.437777
H    -5.830789    -3.200367     1.299090
O    -6.296381    -3.757874     1.965007
H    -6.109338    -3.323898     2.816788
H     1.678979     3.468651     6.867984
O     1.056502     3.983606     6.333000
H     0.272048     4.135337     6.902915
H     5.009102    -2.162524     3.625236
O     5.026793    -1.444739     4.290018
H     4.214655    -0.889507     4.131654
H     2.400008    -5.574409     4.838252
O     2.782015    -6.457424     4.578574
H     2.038386    -7.039946     4.401840
H     2.293210    -4.504907    -6.791045
O     2.125260    -4.993220    -5.975194
H     1.856858    -4.303395    -5.320411
H     6.460763    -4.091368    -0.492854
O     7.213369    -4.493520    -0.027805
H     7.722993    -4.915221    -0.747603
H    -1.736298     4.485104     7.698794
O    -0.838572     4.584096     8.086523
H    -0.658936     5.543484     8.112112
H    -5.098606     5.694582    -5.606291
O    -4.490636     4.931389    -5.625664
H    -3.731860     5.147180    -6.189244
H     3.319203    -2.513474    -8.433101
O     3.230448    -3.044786    -7.631065
H     4.106518    -3.021093    -7.201327
H    -0.652260     8.831559    -2.274700
O    -0.531938     9.659737    -1.754799
H     0.229312     9.486078    -1.176444
H     2.068757    -0.910727     5.214336
O     1.494749    -1.437470     5.799802
H     1.586550    -1.093247     6.697638
H     5.236620    -2.009882    -5.683588
O     5.585753    -2.775180    -6.204864
H     5.310894    -3.566020    -5.689037
H     5.704830    -5.207995     4.694119
O     5.180386    -5.124295     5.519589
H     4.460197    -5.757496     5.431856
H    -3.979276     1.138981     6.996546
O    -3.789955     1.614378     7.841166
H    -4.667171     1.998673     8.100149
H    -1.848686     9.616410    -0.744590
O    -2.710194     9.488297    -0.272448
H    -3.321174     10.116447    -0.661169
H    -5.933425     4.687925    -2.951522
O    -6.841388     4.566808    -3.297150
H    -6.748205     3.865724    -3.975019
H     0.121057    -7.060766    -1.151574
O     0.584111    -7.495051    -0.402042
H    -0.096518    -7.692661     0.244366
H    -7.623788     3.786557    -1.990867
O    -7.886999     3.198340    -1.252293
H    -7.740839     2.290450    -1.591913
H     3.971433    -0.889452     6.993932
O     3.978573     0.074731     6.985531
H     4.791547     0.366135     6.556194
H     2.267193     5.803584    -1.171463
O     3.202787     5.512125    -1.055009
H     3.382230     4.972917    -1.848236
H     6.570933    -5.918516     0.681608
O     6.202131    -6.655527     1.214236
H     5.296507    -6.379984     1.438498
H    -3.880405     4.721841     7.773335
O    -3.311692     4.260309     7.115219
H    -3.503799     3.316526     7.224802
H     5.786315    -7.935192     0.144142
O     5.500878    -8.622462    -0.494183
H     4.672291    -8.297928    -0.890573
H    -0.565319     2.038920     7.691894
O    -1.196823     1.973925     6.955336
H    -2.065953     1.830794     7.349882
H    -6.369147    -0.126228     1.043719
O    -6.689957    -0.211749     0.130938
H    -7.609003    -0.480962     0.150686
H    -5.353183    -3.067547    -0.605276
O    -5.103485    -2.365178     0.021021
H    -5.674313    -1.592625    -0.165447
H     4.323051     5.586856     0.333249
O     4.654460     5.687378     1.239381
H     3.958135     6.196387     1.690245
H    -9.024505    -1.753179    -2.275155
O    -8.475319    -1.552344    -1.490741
H    -8.603779    -2.287466    -0.851199
H    -5.503137     3.471260    -5.540036
O    -6.019669     2.758613    -5.127381
H    -5.352299     2.175150    -4.712293
H     3.208974    -0.876675    -5.649838
O     2.354158    -0.997250    -6.117415
H     2.442105    -1.845700    -6.591771
H     8.144620    -1.331355    -6.011989
O     8.152895    -2.195454    -5.555779
H     7.297909    -2.596607    -5.808875
H     7.648084     1.008957    -6.292478
O     7.461500     0.160535    -6.706496
H     6.480323     0.109000    -6.745370
H    -7.844649    -3.697980     0.909082
O    -8.521110    -3.592428     0.222265
H    -8.421071    -4.352478    -0.377688
H    -2.408845     8.736649     1.291824
O    -2.259225     8.147686     2.044769
H    -1.487578     7.595969     1.823613
H    -4.447493     6.431261     3.489238
O    -4.616391     6.857280     2.632458
H    -3.853618     7.444619     2.495030
H     3.418216     3.457152    -3.568322
O     3.263192     4.426125    -3.474348
H     2.298589     4.489557    -3.584686
H    -6.091739    -1.605499    -3.458530
O    -6.180382    -2.194155    -2.682057
H    -6.961202    -1.884984    -2.169307
H     6.468421     1.058399     4.754412
O     6.071834     1.596162     5.456711
H     6.259328     2.515290     5.166797
H     1.386323     1.731258    -5.819725
O     1.190592     1.134557    -5.066400
H     1.556688     0.272363    -5.336007
H    -2.505233     2.956746     10.478630
O    -2.291253     2.049582     10.205229
H    -2.886877     1.849705     9.471243
H     7.634114    -0.486535     3.099816
O     6.882877     0.087946     3.267385
H     6.190659    -0.513696     3.644766
H    -5.632667    -8.057460    -0.721337
O    -4.900930    -8.125548    -0.072037
H    -4.906557    -7.308253     0.449801
H    -5.152180    -0.117563    -4.728652
O    -5.769822    -0.829168    -4.968963
H    -6.606637    -0.386154    -5.170359
H     1.921620    -0.187224    -7.512237
O     1.721351     0.285805    -8.355796
H     2.298843    -0.118842    -9.008563
H     4.909600    -1.376606    -9.295297
O     3.985025    -1.147882    -9.579143
H     3.965844    -1.268056    -10.527940
H     7.570603    -2.560500     4.214841
O     7.719561    -2.595441     3.255654
H     7.228316    -3.387011     2.982030
H     6.735478    -5.884433     2.695146
O     6.794631    -5.209718     3.397066
H     7.669691    -5.293967     3.816760
H    -1.828162     8.946896     3.497352
O    -1.583115     9.251301     4.396503
H    -2.433185     9.382381     4.849990
H    -7.366098     1.565073    -5.268645
O    -7.941051     0.819904    -5.026304
H    -8.843056     1.219891    -4.951341
H     6.961360    -1.064762    -8.389757
O     6.380834    -1.786242    -8.655285
H     6.151652    -2.237239    -7.824314
H    -1.655441     6.247360    -7.023967
O    -2.053683     5.422040    -6.751070
H    -1.806350     5.290787    -5.787259
H    -0.012050     3.308946     9.024288
O     0.185495     2.389238     9.279172
H    -0.613638     2.123726     9.783618
H     6.779685    -2.765558    -2.692214
O     6.249500    -3.510593    -2.352546
H     6.719203    -4.320750    -2.599015
H    -4.053770    -3.041103    -4.900619
O    -4.233038    -2.930176    -5.863080
H    -4.762052    -2.115762    -5.883783
H     1.970233     2.184616     8.470362
O     2.635339     2.298406     7.781740
H     3.059185     1.428878     7.666853
H    -6.883720    -5.203599    -1.419876
O    -7.799173    -5.471574    -1.670139
H    -7.929846    -5.072364    -2.552858
H    -3.834629     5.251858     5.690358
O    -3.801675     6.020510     5.099844
H    -2.868367     6.316316     5.196375
H    -7.867672     0.083111    -1.985999
O    -7.376927     0.806233    -2.398916
H    -7.604032     0.796965    -3.352330
H     5.849580     0.141277     0.424734
O     5.625033     0.862022     1.045636
H     6.133797     0.667082     1.859562
H    -6.224320     3.302862     7.382302
O    -6.097670     2.784272     8.210922
H    -6.696717     2.022231     8.120915
H     2.303310    -8.066814    -0.844619
O     2.982733    -8.052918    -1.538394
H     2.759949    -8.766104    -2.153491
H    -2.597077    -3.877399    -6.223474
O    -1.875295    -4.472041    -5.961736
H    -1.617345    -4.171249    -5.059455
H    -5.648301     3.755238     5.297224
O    -6.299773     4.150434     5.912788
H    -6.136926     5.094633     5.901052
H    -0.990838    -7.107031    -3.174117
O    -0.519253    -6.439774    -2.641432
H     0.388538    -6.368878    -3.021226
H     4.442771     2.023207     5.139781
O     3.501074     2.261459     5.017697
H     3.114836     2.276522     5.898755
H     4.101540     4.662740     6.312969
O     4.182658     5.393491     5.695637
H     3.617214     5.152633     4.923267
H     2.764010     3.622859     3.930898
O     2.585268     4.562766     3.765043
H     2.468118     4.661738     2.798389
H     9.408940     0.227791    -1.049861
O     8.601714     0.389538    -0.557873
H     8.425703    -0.429964    -0.065904
H    -2.120373     5.316164     10.648282
O    -2.842123     4.686523     10.877532
H    -3.062876     4.862989     11.792285
H     7.989438    -2.995461     0.343330
O     8.408742    -2.148325     0.600069
H     8.340770    -2.144242     1.562222
H     5.370722     3.673966     3.539291
O     6.024983     3.939851     4.207258
H     5.610264     4.657129     4.708377
H    -4.225891     5.016195     9.777191
O    -4.857539     5.166439     9.053739
H    -5.468327     4.416962     9.049690
H    -6.961290    -3.426403    -3.461506
O    -7.576020    -4.039991    -3.927765
H    -7.036677    -4.464837    -4.621534
H     0.006732     6.127382     10.774048
O    -0.857752     6.457622     10.524883
H    -0.740494     6.888880     9.659116
H     2.610180     1.505306    -4.099417
O     3.487183     1.859668    -3.858184
H     3.806765     1.344431    -3.087495
H    -6.976529    -0.227019     7.202209
O    -7.486843     0.550639     7.481667
H    -8.108570     0.733666     6.776195
H    -2.712767    -9.872990    -0.843490
O    -2.651100    -8.930720    -1.000104
H    -3.557936    -8.566735    -0.762828
H    -10.047768     3.069028    -4.922791
O    -10.163800     2.151685    -4.641055
H    -10.381903     2.237387    -3.691788
H    -2.061533    -3.025250     4.606627
O    -2.936412    -3.466044     4.673593
H    -2.927163    -4.084049     3.917500
H    -0.159971    -7.980267     2.479116
O     0.664720    -7.768513     2.929481
H     1.385133    -8.063167     2.344566
H     6.707059    -2.366606     6.406031
O     7.158511    -3.075604     5.943275
H     6.529591    -3.811235     5.902927
H    -5.273039    -2.009294     6.929324
O    -5.948966    -1.512086     6.443910
H    -5.930110    -1.888751     5.534754
H     0.862180     3.042347    -7.111945
O     1.780249     2.712681    -7.165616
H     1.769229     1.965395    -7.791947
H    -3.968866     8.753058     6.667576
O    -3.965110     8.751168     5.710211
H    -4.088280     7.823499     5.441979
H    -2.053685     10.317648    -2.737182
O    -2.954919     10.497992    -3.041009
H    -2.882506     11.132635    -3.753234
H     9.419565    -4.047653     4.062933
O     9.139319    -4.726278     4.684736
H     8.707558    -4.254707     5.408036
H    -0.699926    -5.995266    -5.850753
O     0.003575    -6.554303    -5.504790
H     0.838633    -6.094980    -5.727276
H     1.826453     8.281967     0.672404
O     1.524588     8.603746    -0.205695
H     2.340396     8.643089    -0.734376
H     3.523307     2.942536    -6.653486
O     4.350444     2.653783    -6.242267
H     4.103470     2.378749    -5.334296
H     3.740096     7.134989    -1.218061
O     3.944961     8.071117    -1.430636
H     4.316431     8.015849    -2.323093
H     4.427017     0.006503    -7.902365
O     4.801725     0.153517    -7.032008
H     4.618135     1.085107    -6.788974
H     6.042563     1.945254    -0.461042
O     6.609274     2.139862    -1.221405
H     7.433995     1.660955    -1.026119
H     6.711759    -8.418242    -1.596867
O     7.349434    -8.206144    -2.331480
H     7.716405    -9.039868    -2.620568
H    -5.243167    -5.782972    -5.420182
O    -5.862697    -5.163567    -5.843507
H    -5.323464    -4.354489    -5.978822
H     0.668560     7.175188     7.605947
O    -0.233853     7.201332     7.963392
H    -0.787501     7.215801     7.144666
H    -8.866637    -2.835584    -4.136308
O    -9.390977    -2.032690    -3.962411
H    -9.108076    -1.359427    -4.585214
H    -2.382481    -5.984692    -2.144767
O    -3.260406    -5.700647    -2.416580
H    -3.437620    -6.075485    -3.304993
H    -2.886392    -5.948196    -5.344803
O    -3.516793    -6.549131    -4.901325
H    -3.022764    -7.352857    -4.659534
H    -1.366488     3.733518    -6.985137
O    -0.826177     2.978648    -6.712136
H    -1.059223     2.193244    -7.263682
H    -0.172482     0.427003    -8.218069
O    -1.068725     0.662203    -7.935106
H    -1.245305     0.136328    -7.139126
H    -10.409295     4.046200    -2.757104
O    -10.475946     3.265929    -2.191029
H    -9.648235     3.241655    -1.679236
H     4.584229     4.089948     1.732479
O     4.376349     3.168560     2.009920
H     5.093586     2.593683     1.729964
H     6.506806     1.413352    -4.204764
O     6.202854     0.788720    -3.511658
H     6.231461     1.283795    -2.667594
H     9.651124    -2.208997    -0.909577
O     9.929666    -1.993101    -1.808405
H     9.129712    -1.655781    -2.253652
H     9.993983    -3.301972    -3.078594
O     9.729270    -3.954097    -3.754311
H     9.336476    -3.446835    -4.475320
H    -7.667836    -8.580802    -1.689832
O    -6.933522    -7.982290    -1.819151
H    -7.314089    -7.071451    -1.805589
H     4.174698     6.093228    -3.808943
O     4.834510     6.795399    -3.721705
H     5.671102     6.342542    -3.582935
H     0.132428    -8.161828    -5.221636
O     0.157550    -9.144784    -5.088472
H     0.301157    -9.509182    -5.961978
H    -2.301736    -8.669699    -2.731572
O    -2.073543    -8.401651    -3.640574
H    -1.424222    -9.015635    -4.002876
H     2.218654    -10.806308    -3.500471
O     2.170300    -9.851960    -3.473354
H     1.386459    -9.581705    -4.002685
H     6.855022     3.346866    -4.558054
O     6.915710     2.668997    -5.258950
H     6.123339     2.801133    -5.801518
H    -3.563961    -3.726071     7.710159
O    -3.678903    -2.938531     7.179845
H    -3.424605    -3.176769     6.262162
H    -0.601717    -3.355509    -6.733113
O     0.026071    -2.622043    -6.732251
H    -0.460211    -1.848304    -6.393950
H     0.634004     0.462163     8.753552
O     0.643824    -0.252318     8.112666
H    -0.277816    -0.542343     8.022823
H    -5.820690     7.368765    -4.261839
O    -6.321868     6.749396    -4.823956
H    -6.609170     6.018254    -4.233457
H    -4.270384     9.104910    -3.269373
O    -4.805210     8.307986    -3.164426
H    -4.397583     7.828846    -2.424834
H    -9.695762     5.791785    -4.665645
O    -10.228393     4.986032    -4.504644
H    -11.108641     5.186822    -4.824494
H     2.758972     6.521048     6.149313
O     1.798511     6.616247     6.245041
H     1.456439     5.702495     6.141365
H     4.805170     8.558666     0.098766
O     5.120325     8.559445     1.020477
H     5.528369     7.695733     1.151822
H     4.175497    -7.413956    -4.337845
O     3.418785    -7.698105    -4.882153
H     3.138076    -8.540181    -4.508835
H     0.369004     8.663284     4.239134
O     1.047923     8.019560     4.012089
H     1.273439     7.526685     4.827015
H     5.250087     4.204674    -3.144367
O     6.211441     4.176432    -3.089162
H     6.419542     3.594593    -2.341403
H    -2.580440    -1.546956     7.565729
O    -2.071682    -0.753094     7.787021
H    -2.698915    -0.127946     8.160647
H    -9.016060     7.933420    -4.163835
O    -8.950579     7.347918    -4.919712
H    -7.992910     7.186255    -5.053592
H     3.551955    -8.971303     1.091623
O     2.874431    -8.340629     1.340997
H     3.347855    -7.534861     1.621497
H     3.582324     8.180850     1.840905
O     2.792200     7.616363     1.951213
H     2.344010     7.851049     2.776556
N    -5.666339    -6.422009    -8.435621
H    -6.477930    -6.282977    -8.930988
H    -5.836949    -5.993826    -7.577802
