33
Coordinates from ORCA-job grain_mol_opt.QMRegion
  H   0.40908922765795     -3.29059939882096     -4.08374878807147
  O   1.31477761596424     -3.03113986246783     -4.35544689585114
  H   1.20891522405525     -2.39900330940757     -5.08348739500750
  H   -1.53078988609210     -0.79576762042230     -4.52406917338818
  O   -1.00559753059376     -0.61109580956344     -5.32806799215111
  H   -0.32862636459659      0.02650279260376     -5.03610637219622
  H   2.26701203271831     -4.60026757130164     -6.81469082042662
  O   2.11110608898987     -5.04088601654535     -5.96934129649568
  H   1.81277922789680     -4.31871766182934     -5.36369285073344
  H   3.37486762942250     -2.58188059276220     -8.50568296213783
  O   3.27015543104631     -3.07346796481923     -7.66986568668139
  H   4.16513029228790     -3.06142749326493     -7.27585118635114
  H   3.21789611486249     -0.91058909518161     -5.58361836607368
  O   2.37417775573402     -1.08676306625732     -6.06491003652889
  H   2.60792351653559     -1.82540527206875     -6.67489052226413
  H   1.84263708573209     -0.12555788110443     -7.48474689821649
  O   1.37582289001959      0.29400544664264     -8.23808524528732
  H   1.35555656990584     -0.40043853236007     -8.91694044716452
  H   5.00919580202779     -1.36718496904813     -9.33955034790627
  O   4.06559294609279     -1.10884978874750     -9.49695495065497
  H   3.98196930627370     -1.02463582990928    -10.44992280804490
  H   -2.83121014547089     -3.94624527221909     -6.12507426780019
  O   -2.04268626133428     -4.48595916942521     -5.93576193644843
  H   -1.76801180581036     -4.21651968363277     -5.02771318974773
  H   -0.41126606204099      0.48781593934907     -8.00830204913263
  O   -1.35701285933500      0.69280269750389     -7.84113332334028
  H   -1.54003525421024      0.23487428394711     -7.00556225713225
  H   -0.75722546178531     -3.39215507905420     -6.78281998615135
  O   -0.12450192116154     -2.67586582100505     -6.96541564373529
  H   -0.48890918884156     -1.92288887266710     -6.45928861852510
  O   0.78915939525855     -2.13308441807891     -9.49413529661595
  H   0.06285948153924     -2.13776325387220    -10.12277792082963
  H   0.37651559166062     -2.38080481344586     -8.63436486501083
