603

H     0.210907     3.028151    -0.679574
O     0.737335     2.361572    -1.171557
H     1.674878     2.493361    -0.895149
H    -0.060282    -1.308596     3.151927
O     0.330817    -0.607523     2.607910
H    -0.149891     0.204597     2.839907
H    -2.386507     2.399843    -0.542076
O    -2.175262     1.930119     0.282193
H    -2.189601     0.982097     0.057761
H    -4.650769     0.530608     2.171671
O    -4.964822    -0.403742     2.184698
H    -4.457696    -0.880225     1.519237
H     0.081141    -0.311149     0.952756
O    -0.113090    -0.075937     0.024751
H     0.221479     0.822645    -0.094323
H    -0.133054    -3.579075     3.780428
O    -0.414916    -2.749087     4.199119
H     0.228547    -2.576379     4.902817
H    -4.878698     2.513127     1.318194
O    -4.239188     2.105886     1.934473
H    -3.395305     2.090762     1.423695
H    -3.237652     3.883983    -2.220434
O    -2.498670     3.289255    -1.987864
H    -2.137530     3.002488    -2.846657
H    -0.096854    -3.808410     0.506598
O     0.240879    -2.988965     0.922918
H    -0.548359    -2.504803     1.233744
H    -2.359928    -1.547914     2.465533
O    -2.166888    -2.013360     1.625158
H    -2.426553    -1.427785     0.894917
H     2.096950    -1.440965    -1.115019
O     2.329026    -1.693611    -0.197949
H     1.540012    -2.122188     0.185698
H    -1.382536     1.818367     1.908286
O    -1.474415     1.420471     2.784169
H    -1.464134     2.132965     3.449119
H     0.237047    -2.706740    -1.566213
O    -0.518579    -2.095788    -1.625686
H    -0.343766    -1.369569    -0.990321
H    -3.409089    -2.940098    -0.397389
O    -2.688600    -3.429143    -0.816261
H    -1.980583    -2.795684    -1.032633
H     2.783465     0.135607     2.940122
O     2.881747    -0.046527     3.901860
H     2.969066     0.846745     4.306721
H    -3.529625     6.366074    -0.553629
O    -3.291524     7.028969    -1.253670
H    -3.153669     7.874816    -0.783516
H     3.915679     0.593175     1.194421
O     2.965470     0.408367     1.307967
H     2.731894    -0.345160     0.728802
H    -5.762379     0.820906    -1.617435
O    -4.853174     1.151174    -1.489522
H    -4.967974     1.979561    -0.978645
H    -1.215304     5.391392     2.205219
O    -1.837245     4.641946     2.087209
H    -1.916152     4.223663     2.949827
H     3.501939     2.771221     0.431731
O     3.256305     2.726574    -0.508056
H     3.592298     1.884746    -0.856720
H     1.525346    -4.696887    -2.240812
O     1.588106    -3.917447    -1.671475
H     2.382598    -3.455435    -2.020498
H    -0.898138    -0.091921    -2.550337
O    -0.263735     0.561099    -2.873057
H    -0.007776     1.145400    -2.135995
H     1.731290    -4.683389    -0.171281
O     1.842184    -5.320897     0.569745
H     1.378456    -6.132926     0.274575
H    -1.193684    -3.274163    -2.881814
O    -1.012937    -3.956387    -3.541757
H    -0.891111    -4.803733    -3.072301
H    -2.783037     3.299277     4.697024
O    -1.801675     3.299485     4.665042
H    -1.509563     2.899158     5.502256
H     0.955403     5.036219     4.075913
O     0.008505     5.265432     4.125500
H    -0.461592     4.461037     4.383069
H    -1.697322    -4.659519    -0.372034
O    -0.930510    -5.196072    -0.083788
H    -1.277127    -5.886370     0.491066
H    -3.912400     5.816044    -2.609126
O    -4.259330     4.980522    -2.939377
H    -4.102660     4.946108    -3.907288
H    -2.405441    -3.698897     1.932781
O    -2.421956    -4.602834     2.309183
H    -1.481938    -4.838405     2.451560
H    -4.661923    -2.998164    -2.907775
O    -3.807745    -3.228441    -3.311916
H    -3.476740    -4.022046    -2.846218
H     0.342955     1.377040     4.614995
O     0.847794     2.138272     4.281951
H     0.892559     2.797944     4.988464
H    -4.618296    -5.188587    -1.578713
O    -5.321918    -4.836261    -1.006413
H    -5.109998    -5.190320    -0.121790
H     2.393427    -6.532448    -3.943529
O     2.047385    -6.199263    -3.104994
H     2.447773    -6.803365    -2.439556
H     0.505991    -3.389550    -4.002601
O     1.310595    -3.028772    -4.429287
H     0.987166    -2.649876    -5.273229
H     1.980761    -1.748880     2.987296
O     2.139916    -2.679098     2.769830
H     1.455314    -2.895285     2.102284
H    -2.984880    -1.822587    -3.215517
O    -2.564676    -0.934960    -3.151796
H    -3.222257    -0.291307    -3.471377
H    -3.190293     4.963281     1.070770
O    -3.972100     5.334128     0.614356
H    -4.390564     5.890990     1.319430
H     0.880987     2.254304     2.591835
O     0.984170     2.249355     1.620799
H     1.713562     1.628535     1.458742
H     0.192320     5.654034    -0.760327
O     0.713095     6.317072    -1.268542
H     0.851411     7.117779    -0.713035
H     0.333565     7.035245     2.588306
O    -0.025482     6.653262     1.770249
H     0.641127     5.984553     1.510761
H    -2.470178     0.206022     3.335665
O    -2.690170    -0.608718     3.840178
H    -1.931067    -0.645311     4.463794
H    -0.890877     0.550850     6.023066
O    -0.613357     0.032032     5.249392
H     0.101058    -0.569296     5.538134
H     0.738980    -4.994616     1.984177
O     0.195903    -5.105096     2.787774
H     0.341790    -6.025516     3.060065
H    -2.076350    -8.098478     0.446231
O    -1.757701    -7.607492     1.231294
H    -2.546357    -7.300458     1.686078
H    -0.378179     6.858424    -2.329328
O    -1.124927     7.275505    -2.830417
H    -1.915621     7.147396    -2.268123
H    -1.110020     4.303476     0.569621
O    -0.735531     4.364826    -0.325853
H    -1.440454     4.120885    -0.959324
H    -4.407739     2.732281     3.496585
O    -4.408443     2.903095     4.461049
H    -4.490145     2.020001     4.870433
H     2.043818    -3.577365     4.250162
O     1.980428    -4.049922     5.103167
H     2.483442    -3.510970     5.735094
H     4.712959    -3.184943     0.850043
O     4.554590    -3.110877    -0.117191
H     3.694592    -2.635481    -0.202079
H    -2.700052    -0.760340    -1.357753
O    -3.029563    -0.490663    -0.484132
H    -3.831785     0.032027    -0.692439
H    -1.587530    -0.771414    -4.635550
O    -1.076522    -0.556543    -5.437454
H    -0.372377     0.045718    -5.150494
H     1.823441    -1.715949    -3.373889
O     1.913060    -0.968309    -2.752610
H     1.133262    -0.393741    -2.882835
H     3.684972    -3.112804     2.559323
O     4.644802    -3.339352     2.487080
H     4.701937    -4.299002     2.616537
H     3.456542    -6.113063     3.133449
O     3.813675    -5.911397     2.233713
H     3.075618    -5.568548     1.689665
H    -3.322930     1.596337    -4.184945
O    -4.166222     1.122535    -3.995874
H    -4.386769     1.268062    -3.039755
H    -5.077960     4.129145     0.054038
O    -5.513314     3.261565    -0.050041
H    -6.443694     3.377561    -0.333453
H     6.758712    -1.166129    -1.346770
O     5.983277    -1.019351    -0.798736
H     5.567309    -1.888337    -0.600723
H     4.626883    -3.157706    -2.457869
O     3.759351    -2.990172    -2.876385
H     3.767374    -3.607956    -3.631745
H     4.448006    -2.281166     5.631820
O     4.104938    -2.747253     6.424479
H     4.442587    -3.651363     6.344184
H    -0.766329     6.334806     5.070544
O    -1.365833     6.908992     5.607181
H    -1.381171     7.785834     5.165303
H     4.719207    -0.126651    -1.456357
O     3.950843     0.412847    -1.722229
H     3.260614    -0.190060    -2.052042
H    -0.730363     4.516663    -4.040688
O    -1.514389     5.056767    -4.251044
H    -1.367139     5.924152    -3.828331
H     0.672719     3.201586    -2.658021
O     0.681170     3.577683    -3.566890
H     0.730992     2.814042    -4.151825
H    -5.354471    -5.212043     1.785665
O    -4.655205    -5.804404     1.431705
H    -3.816478    -5.386363     1.704346
H     7.912606    -1.671641    -4.016709
O     7.650727    -1.359739    -3.118016
H     7.162196    -0.516889    -3.275534
H     3.767653    -5.019153    -5.243174
O     4.533549    -4.671230    -4.748741
H     4.912464    -5.374238    -4.190195
H    -3.777390     0.005773     4.926890
O    -4.380480     0.468521     5.558084
H    -5.039387    -0.191308     5.849110
H     3.501358    -5.935627    -0.508697
O     4.369956    -5.685679    -0.836212
H     4.446544    -4.724163    -0.685946
H     5.027281    -0.324852    -4.151622
O     4.495987    -1.039632    -4.541402
H     4.169654    -1.621101    -3.822345
H    -1.151251     1.563368    -3.939921
O    -1.802929     2.181317    -4.327485
H    -1.444828     2.514368    -5.172946
H     4.919992    -6.315760    -2.304587
O     5.258250    -6.641770    -3.169144
H     6.079478    -7.116834    -2.978030
H     8.777699    -5.071456    -2.899132
O     8.084026    -5.491570    -2.345188
H     8.125386    -6.449003    -2.443950
H     2.340208     4.723443     0.453712
O     1.759636     4.704089     1.223808
H     1.404633     3.782878     1.301331
H    -4.399007    -2.648866     4.223819
O    -5.293550    -2.312044     4.019512
H    -5.157946    -1.530832     3.443858
H    -5.822091    -3.215574     1.307338
O    -6.284672    -3.773465     1.974962
H    -6.099308    -3.337205     2.825749
H     1.679154     3.473977     6.864003
O     1.055774     3.987222     6.328454
H     0.271239     4.138499     6.898506
H     5.017281    -2.155643     3.626742
O     5.034506    -1.437014     4.290396
H     4.221052    -0.883309     4.132363
H     2.415078    -5.570609     4.845605
O     2.798403    -6.453210     4.586088
H     2.055385    -7.037320     4.411844
H     2.302137    -4.390216    -6.754078
O     2.153093    -4.911418    -5.948773
H     1.893482    -4.214828    -5.282800
H     6.469531    -4.087650    -0.488593
O     7.223114    -4.489099    -0.024722
H     7.733110    -4.910402    -0.744265
H    -1.737167     4.485596     7.695208
O    -0.839190     4.586723     8.081959
H    -0.661461     5.546478     8.106524
H    -5.107792     5.672095    -5.609534
O    -4.497385     4.910698    -5.628223
H    -3.740140     5.127176    -6.193334
H     3.320804    -2.529196    -8.428604
O     3.240448    -3.065458    -7.628567
H     4.115886    -3.023877    -7.196813
H    -0.665095     8.820611    -2.284796
O    -0.545616     9.649743    -1.766301
H     0.215928     9.478072    -1.187787
H     2.075647    -0.906682     5.216501
O     1.503544    -1.434545     5.802730
H     1.593793    -1.088295     6.699985
H     5.239887    -2.010623    -5.682555
O     5.586045    -2.776477    -6.206007
H     5.324612    -3.566052    -5.683083
H     5.718364    -5.199193     4.699753
O     5.194479    -5.114915     5.525284
H     4.475122    -5.749347     5.439518
H    -3.974881     1.134923     6.998493
O    -3.785748     1.612003     7.842238
H    -4.663581     1.995047     8.101208
H    -1.862146     9.605815    -0.755045
O    -2.723034     9.476850    -0.282191
H    -3.335490     10.103249    -0.671425
H    -5.940035     4.666959    -2.953075
O    -6.847600     4.545062    -3.299074
H    -6.753918     3.842468    -3.975452
H     0.136366    -7.069498    -1.135702
O     0.602326    -7.499082    -0.384851
H    -0.078608    -7.701402     0.259703
H    -7.628511     3.764075    -1.990872
O    -7.889018     3.176759    -1.250819
H    -7.742966     2.268264    -1.589642
H     3.978986    -0.880108     6.994956
O     3.984612     0.084050     6.984655
H     4.797164     0.376088     6.555018
H     2.259742     5.799095    -1.178508
O     3.196063     5.509229    -1.062653
H     3.375668     4.969294    -1.855170
H     6.582902    -5.913483     0.688430
O     6.214520    -6.651798     1.219282
H     5.310130    -6.376058     1.448679
H    -3.881500     4.719061     7.770391
O    -3.312112     4.257604     7.112769
H    -3.503016     3.313682     7.223439
H     5.802395    -7.932244     0.152447
O     5.519434    -8.618345    -0.488500
H     4.685576    -8.299682    -0.878173
H    -0.562408     2.041534     7.691011
O    -1.193928     1.974437     6.954668
H    -2.062785     1.830558     7.349650
H    -6.368311    -0.143030     1.050104
O    -6.685995    -0.228063     0.136492
H    -7.603909    -0.501828     0.152447
H    -5.344926    -3.084006    -0.596376
O    -5.095459    -2.379862     0.028446
H    -5.668208    -1.609362    -0.160591
H     4.316405     5.587898     0.325249
O     4.648466     5.689775     1.230982
H     3.951785     6.198422     1.681814
H    -9.017712    -1.776319    -2.269816
O    -8.471543    -1.572884    -1.483072
H    -8.598134    -2.309454    -0.845055
H    -5.507684     3.448439    -5.540505
O    -6.023555     2.736334    -5.126451
H    -5.356232     2.153158    -4.710909
H     3.211156    -0.885732    -5.648380
O     2.356213    -1.010626    -6.114948
H     2.444590    -1.858630    -6.587890
H     8.147314    -1.331113    -6.012721
O     8.156731    -2.195219    -5.556328
H     7.302940    -2.597564    -5.809186
H     7.646451     1.006185    -6.296415
O     7.460072     0.156907    -6.708887
H     6.479038     0.104848    -6.747219
H    -7.835148    -3.718583     0.917063
O    -8.512185    -3.613664     0.231055
H    -8.410880    -4.373420    -0.369810
H    -2.419995     8.727620     1.282859
O    -2.268705     8.139983     2.036503
H    -1.496408     7.589208     1.815455
H    -4.453805     6.421664     3.484308
O    -4.623573     6.846356     2.627055
H    -3.861893     7.434828     2.488676
H     3.413825     3.451026    -3.573216
O     3.257461     4.419758    -3.481152
H     2.292493     4.481598    -3.589998
H    -6.088380    -1.628617    -3.452868
O    -6.169927    -2.207419    -2.668539
H    -6.956412    -1.903315    -2.161706
H     6.472126     1.069147     4.751092
O     6.075022     1.606923     5.452982
H     6.260443     2.526132     5.161900
H     1.383768     1.720190    -5.821302
O     1.189537     1.124032    -5.067066
H     1.555946     0.262069    -5.335035
H    -2.502158     2.959765     10.477408
O    -2.286505     2.052732     10.204887
H    -2.882409     1.850746     9.471686
H     7.639435    -0.476589     3.098720
O     6.887145     0.096967     3.264520
H     6.195964    -0.504778     3.643885
H    -5.617304    -8.075200    -0.706271
O    -4.883128    -8.140404    -0.058787
H    -4.891383    -7.323118     0.462943
H    -5.152263    -0.139577    -4.725031
O    -5.766171    -0.853564    -4.966159
H    -6.605690    -0.415028    -5.165561
H     1.921026    -0.200510    -7.511344
O     1.719746     0.268770    -8.356304
H     2.298754    -0.135245    -9.008060
H     4.908981    -1.390287    -9.294193
O     3.982005    -1.169555    -9.576940
H     3.965811    -1.279925    -10.527002
H     7.580225    -2.548279     4.215612
O     7.728556    -2.584906     3.256332
H     7.238128    -3.377690     2.984878
H     6.750509    -5.877491     2.702012
O     6.808227    -5.200334     3.401139
H     7.683194    -5.281843     3.821983
H    -1.838391     8.941809     3.487796
O    -1.593151     9.247751     4.386370
H    -2.443138     9.378067     4.840273
H    -7.368924     1.539566    -5.265809
O    -7.941521     0.793685    -5.021005
H    -8.844818     1.190272    -4.947178
H     6.961627    -1.068019    -8.392402
O     6.382485    -1.791509    -8.655585
H     6.155937    -2.240925    -7.823328
H    -1.666275     6.228850    -7.029981
O    -2.060802     5.401881    -6.756683
H    -1.814629     5.273353    -5.792157
H    -0.010351     3.314319     9.021273
O     0.189032     2.395303     9.277262
H    -0.609455     2.129099     9.782450
H     6.785692    -2.763258    -2.689774
O     6.256518    -3.510239    -2.352349
H     6.732318    -4.318417    -2.593416
H    -4.045651    -3.089828    -4.947794
O    -4.197198    -2.977802    -5.913247
H    -4.747143    -2.186797    -5.971673
H     1.973356     2.192936     8.467788
O     2.638138     2.306601     7.778789
H     3.063090     1.437494     7.665110
H    -6.873670    -5.225539    -1.404855
O    -7.788234    -5.497283    -1.651434
H    -7.921494    -5.096499    -2.535170
H    -3.837934     5.246235     5.686663
O    -3.806281     6.014155     5.095121
H    -2.873485     6.311611     5.191005
H    -7.865377     0.060489    -1.980988
O    -7.376902     0.785263    -2.394096
H    -7.603669     0.772972    -3.347696
H     5.852638     0.144607     0.423489
O     5.627482     0.866220     1.042860
H     6.136349     0.673374     1.857305
H    -6.223203     3.295495     7.382593
O    -6.095181     2.778211     8.211792
H    -6.693081     2.015072     8.123003
H     2.325330    -8.065817    -0.822297
O     2.993926    -8.058384    -1.527095
H     2.757321    -8.783038    -2.123611
H    -2.716973    -3.964555    -6.202525
O    -1.955856    -4.521037    -5.971494
H    -1.687126    -4.234625    -5.070168
H    -5.649063     3.746203     5.296350
O    -6.300453     4.141184     5.912084
H    -6.139915     5.085738     5.898218
H    -0.982711    -7.124786    -3.135698
O    -0.507758    -6.449482    -2.614232
H     0.391009    -6.376799    -3.007818
H     4.444665     2.030613     5.136848
O     3.502590     2.266935     5.014468
H     3.116413     2.282933     5.895569
H     4.099362     4.671312     6.306520
O     4.180027     5.400805     5.687645
H     3.614040     5.158404     4.916164
H     2.762334     3.625814     3.926285
O     2.582781     4.565314     3.759149
H     2.464406     4.662818     2.792510
H     9.412093     0.236078    -1.051836
O     8.602587     0.395199    -0.562889
H     8.429657    -0.422770    -0.067396
H    -2.121219     5.320104     10.643765
O    -2.841692     4.689470     10.874174
H    -3.062555     4.866896     11.788716
H     7.997602    -2.988591     0.346001
O     8.415418    -2.140324     0.600591
H     8.348084    -2.134428     1.562868
H     5.368729     3.680993     3.533552
O     6.023379     3.948715     4.200316
H     5.607714     4.665594     4.701358
H    -4.226752     5.015323     9.774043
O    -4.858772     5.163707     9.050553
H    -5.468533     4.413372     9.047687
H    -6.977726    -3.504017    -3.495496
O    -7.595928    -4.117428    -3.944683
H    -7.072524    -4.559452    -4.645102
H     0.004751     6.135121     10.767311
O    -0.860420     6.463523     10.518118
H    -0.744374     6.893891     9.651762
H     2.608173     1.498389    -4.100409
O     3.486031     1.852313    -3.861789
H     3.805512     1.340284    -3.088942
H    -6.969804    -0.235618     7.207394
O    -7.480999     0.541800     7.485962
H    -8.103728     0.722450     6.780752
H    -2.692710    -9.884196    -0.832489
O    -2.634313    -8.941779    -0.990131
H    -3.541875    -8.580119    -0.750231
H    -10.052691     3.040507    -4.918705
O    -10.167167     2.122851    -4.637547
H    -10.385278     2.206803    -3.688351
H    -2.051649    -3.028993     4.613046
O    -2.925248    -3.471701     4.681525
H    -2.916058    -4.090231     3.925838
H    -0.143769    -7.983897     2.492672
O     0.681867    -7.769863     2.940314
H     1.400955    -8.065167     2.354258
H     6.717729    -2.353320     6.407287
O     7.169411    -3.062150     5.944462
H     6.541630    -3.798886     5.906699
H    -5.263481    -2.015349     6.936179
O    -5.940161    -1.519449     6.450538
H    -5.921502    -1.897371     5.541799
H     0.856476     3.028143    -7.114399
O     1.774981     2.699022    -7.168542
H     1.763933     1.952170    -7.794912
H    -3.977619     8.748591     6.659285
O    -3.973392     8.745470     5.701929
H    -4.095750     7.817363     5.434863
H    -2.068935     10.304017    -2.748491
O    -2.970673     10.482302    -3.051981
H    -2.899990     11.116196    -3.765040
H     9.431410    -4.032953     4.066003
O     9.151297    -4.711851     4.687558
H     8.719971    -4.240510     5.411301
H    -0.802486    -5.872473    -5.909801
O    -0.091953    -6.450161    -5.598715
H     0.725879    -5.934560    -5.745331
H     1.815798     8.279048     0.662134
O     1.513143     8.599014    -0.216333
H     2.328664     8.639389    -0.745294
H     3.518369     2.932594    -6.657754
O     4.345738     2.643200    -6.247379
H     4.099845     2.371437    -5.338063
H     3.730508     7.132838    -1.228041
O     3.934036     8.068919    -1.441928
H     4.304793     8.013358    -2.334606
H     4.425437    -0.001390    -7.904364
O     4.799185     0.144165    -7.033419
H     4.615876     1.076153    -6.790134
H     6.041724     1.948343    -0.465441
O     6.607193     2.141411    -1.227177
H     7.433285     1.665439    -1.030944
H     6.726235    -8.415725    -1.591249
O     7.358479    -8.202781    -2.330893
H     7.735615    -9.034692    -2.612158
H    -5.258657    -5.811796    -5.411782
O    -5.876804    -5.140862    -5.726861
H    -5.327776    -4.371806    -5.964817
H     0.663242     7.179866     7.597481
O    -0.239002     7.204879     7.955340
H    -0.793151     7.217323     7.136922
H    -8.866038    -2.864986    -4.115416
O    -9.388520    -2.057449    -3.949479
H    -9.103696    -1.392832    -4.580418
H    -2.375481    -5.999550    -2.138962
O    -3.251331    -5.712889    -2.414272
H    -3.434517    -6.092168    -3.299157
H    -2.946117    -5.916009    -5.412398
O    -3.540139    -6.525712    -4.935057
H    -3.055321    -7.345973    -4.776216
H    -1.371882     3.716231    -6.987082
O    -0.830005     2.961671    -6.715672
H    -1.065218     2.175921    -7.265140
H    -0.175294     0.408300    -8.216281
O    -1.072280     0.640804    -7.934079
H    -1.247285     0.117359    -7.135994
H    -10.413991     4.018725    -2.755726
O    -10.480049     3.240245    -2.187184
H    -9.651694     3.216799    -1.676594
H     4.580611     4.093425     1.726378
O     4.374485     3.171665     2.004143
H     5.093379     2.598274     1.725618
H     6.505088     1.411718    -4.208381
O     6.202632     0.786554    -3.514923
H     6.230223     1.282666    -2.671226
H     9.657543    -2.200923    -0.908914
O     9.934402    -1.988394    -1.809078
H     9.134387    -1.650311    -2.253431
H     10.000887    -3.297749    -3.076231
O     9.735545    -3.950689    -3.751090
H     9.344051    -3.443903    -4.473058
H    -7.652975    -8.601373    -1.675534
O    -6.917510    -8.003301    -1.799950
H    -7.299193    -7.092177    -1.791216
H     4.165495     6.088299    -3.817659
O     4.824400     6.791502    -3.732258
H     5.661785     6.340411    -3.592713
H     0.062506    -8.098983    -5.149377
O     0.237026    -9.066796    -5.044565
H     0.715670    -9.242444    -5.874255
H    -2.278689    -8.689881    -2.719462
O    -2.031567    -8.413732    -3.621980
H    -1.408051    -9.045907    -3.993047
H     2.340848    -10.720836    -3.561698
O     2.196364    -9.781481    -3.443581
H     1.392636    -9.514371    -3.977908
H     6.850426     3.344432    -4.564375
O     6.911206     2.665506    -5.264412
H     6.118687     2.796980    -5.806896
H    -3.552051    -3.728600     7.718102
O    -3.667021    -2.941427     7.187259
H    -3.413702    -3.180629     6.269570
H    -0.606005    -3.368515    -6.721024
O     0.029655    -2.641140    -6.728708
H    -0.450701    -1.863238    -6.390206
H     0.640367     0.468040     8.753977
O     0.650990    -0.247185     8.113916
H    -0.270310    -0.538781     8.025134
H    -5.832318     7.346270    -4.267444
O    -6.332051     6.725238    -4.828906
H    -6.618382     5.994250    -4.237471
H    -4.284009     9.086914    -3.277682
O    -4.817162     8.288997    -3.171938
H    -4.408926     7.811587    -2.431598
H    -9.704700     5.763508    -4.667464
O    -10.235750     4.957285    -4.504178
H    -11.116475     5.155111    -4.824581
H     2.754154     6.527221     6.140644
O     1.793607     6.620802     6.236555
H     1.452941     5.706320     6.134590
H     4.794039     8.560010     0.086568
O     5.109865     8.562485     1.008014
H     5.519141     7.699537     1.140402
H     4.319792    -7.492055    -4.339341
O     3.559675    -7.833661    -4.847673
H     3.272076    -8.621006    -4.339858
H     0.359555     8.662766     4.228577
O     1.039606     8.019980     4.002165
H     1.266120     7.528567     4.817691
H     5.244419     4.203156    -3.150869
O     6.205883     4.174497    -3.097462
H     6.415118     3.595356    -2.347950
H    -2.571064    -1.547854     7.570564
O    -2.063500    -0.752778     7.790426
H    -2.691722    -0.128283     8.163510
H    -9.028110     7.906073    -4.168413
O    -8.961742     7.320832    -4.924415
H    -8.003977     7.159791    -5.057956
H     3.569255    -8.973188     1.108957
O     2.891974    -8.338349     1.347650
H     3.364642    -7.533698     1.632613
H     3.572517     8.182638     1.830124
O     2.783739     7.616538     1.941358
H     2.335037     7.851674     2.766343
N     2.082790    -8.688834    -7.131195
H     1.688564    -7.926155    -7.567214
H     2.749521    -8.300001    -6.535679
