24

H     2.362909    -6.573475    -3.911986
O     2.018588    -6.235591    -3.074623
H     2.417836    -6.837962    -2.406939
H     3.740288    -5.069258    -5.219395
O     4.507541    -4.721513    -4.726951
H     4.884945    -5.423320    -4.165887
H     2.275106    -4.442348    -6.731576
O     2.125321    -4.959812    -5.924000
H     1.868345    -4.259768    -5.260647
H    -0.832937    -5.912306    -5.878082
O    -0.123771    -6.490675    -5.565144
H     0.695385    -5.978056    -5.714783
H     0.026372    -8.138158    -5.109324
O     0.198288    -9.106025    -5.000795
H     0.675939    -9.286261    -5.830090
H     2.298486    -10.759931    -3.512567
O     2.156926    -9.819642    -3.398413
H     1.353486    -9.552457    -3.933138
H     4.286198    -7.540162    -4.305396
O     3.524680    -7.881714    -4.811666
H     3.235288    -8.666172    -4.300410
N     2.043267    -8.741474    -7.090350
H     2.711633    -8.352292    -6.496894
H     1.650740    -7.979326    -7.528822
