603

H     0.198318     3.030515    -0.672001
O     0.721738     2.362330    -1.164737
H     1.660232     2.490977    -0.890177
H    -0.080975    -1.306369     3.158389
O     0.311870    -0.605245     2.615544
H    -0.168413     0.207365     2.846641
H    -2.401051     2.410080    -0.531537
O    -2.189861     1.940063     0.292578
H    -2.207556     0.991965     0.068431
H    -4.667671     0.547981     2.185769
O    -4.984727    -0.385250     2.198443
H    -4.479296    -0.863260     1.532914
H     0.060024    -0.308736     0.959875
O    -0.136144    -0.072322     0.032666
H     0.202733     0.824469    -0.087633
H    -0.160926    -3.576289     3.786300
O    -0.436319    -2.744068     4.204977
H     0.208361    -2.577293     4.908624
H    -4.890726     2.531069     1.331867
O    -4.250970     2.122280     1.946573
H    -3.408096     2.104548     1.434555
H    -3.249998     3.897038    -2.208522
O    -2.512290     3.300527    -1.976795
H    -2.153403     3.011951    -2.836029
H    -0.129297    -3.805147     0.512847
O     0.210680    -2.987305     0.930164
H    -0.576845    -2.500978     1.241877
H    -2.385190    -1.537851     2.477014
O    -2.192583    -2.003065     1.636458
H    -2.451268    -1.416848     0.906380
H     2.070068    -1.444545    -1.111007
O     2.301269    -1.696920    -0.193318
H     1.511735    -2.124428     0.190122
H    -1.395997     1.825451     1.917674
O    -1.486164     1.427781     2.793891
H    -1.474717     2.139733     3.459396
H     0.205966    -2.704410    -1.560866
O    -0.549088    -2.092229    -1.616851
H    -0.370449    -1.366089    -0.982523
H    -3.440032    -2.926130    -0.384616
O    -2.722412    -3.417815    -0.805341
H    -2.012181    -2.787018    -1.022650
H     2.766343     0.128762     2.943465
O     2.864950    -0.052832     3.905507
H     2.956627     0.840443     4.309149
H    -3.531718     6.380149    -0.541362
O    -3.292663     7.042613    -1.241559
H    -3.151281     7.887740    -0.771253
H     3.897299     0.583278     1.196207
O     2.946725     0.401598     1.312013
H     2.709609    -0.350823     0.732477
H    -5.783543     0.841793    -1.601515
O    -4.873186     1.169447    -1.475649
H    -4.984505     1.998077    -0.964428
H    -1.216628     5.397529     2.215171
O    -1.841345     4.650188     2.098303
H    -1.920776     4.232212     2.960749
H     3.489630     2.762037     0.434487
O     3.242767     2.719280    -0.504899
H     3.575234     1.876451    -0.854976
H     1.488911    -4.698533    -2.240114
O     1.553150    -3.920919    -1.667451
H     2.348065    -3.460058    -2.018066
H    -0.923299    -0.086603    -2.541386
O    -0.289034     0.565876    -2.865336
H    -0.029209     1.148412    -2.128378
H     1.695181    -4.686429    -0.168726
O     1.802341    -5.323453     0.573867
H     1.338432    -6.134490     0.278204
H    -1.228480    -3.267311    -2.872090
O    -1.054065    -3.950878    -3.532425
H    -0.928506    -4.797661    -3.062896
H    -2.789414     3.312663     4.706125
O    -1.806790     3.298383     4.684988
H    -1.537449     2.892665     5.525228
H     0.953407     5.034878     4.082561
O     0.006882     5.265243     4.134433
H    -0.463896     4.462044     4.395137
H    -1.733867    -4.650994    -0.363818
O    -0.968791    -5.192183    -0.079369
H    -1.316755    -5.877356     0.500734
H    -3.918720     5.831347    -2.596474
O    -4.269490     4.997236    -2.926160
H    -4.113808     4.961808    -3.894173
H    -2.435623    -3.689121     1.940896
O    -2.454020    -4.595227     2.311569
H    -1.515110    -4.831449     2.459281
H    -4.697219    -2.980826    -2.893459
O    -3.844767    -3.213975    -3.299432
H    -3.514000    -4.007163    -2.833234
H     0.332436     1.377485     4.619599
O     0.839030     2.137769     4.288798
H     0.885700     2.797774     4.995096
H    -4.658311    -5.170537    -1.564592
O    -5.360809    -4.816880    -0.991889
H    -5.148189    -5.170432    -0.107036
H     2.325283    -6.484215    -4.028003
O     1.987773    -6.154988    -3.174887
H     2.421417    -6.728623    -2.510973
H     0.465761    -3.381219    -3.996376
O     1.268752    -3.014568    -4.419364
H     0.949648    -2.643347    -5.268136
H     1.957380    -1.752522     2.990775
O     2.113564    -2.683341     2.774039
H     1.427683    -2.897815     2.107204
H    -3.016624    -1.810602    -3.203856
O    -2.594343    -0.924083    -3.139486
H    -3.249854    -0.278621    -3.459360
H    -3.194914     4.975929     1.082616
O    -3.975717     5.350047     0.627322
H    -4.391688     5.907613     1.333213
H     0.870307     2.254128     2.597538
O     0.972484     2.249374     1.626629
H     1.699195     1.625646     1.463244
H     0.187315     5.656241    -0.753151
O     0.709501     6.317964    -1.261701
H     0.851033     7.117935    -0.706106
H     0.338086     7.036599     2.596064
O    -0.023738     6.655631     1.778811
H     0.640420     5.985077     1.517641
H    -2.487486     0.217432     3.346857
O    -2.711582    -0.595483     3.852281
H    -1.951312    -0.640132     4.471870
H    -0.890971     0.570492     6.027751
O    -0.628374     0.030466     5.262541
H     0.092090    -0.566846     5.545703
H     0.704739    -4.994640     1.989940
O     0.162352    -5.102655     2.794434
H     0.305338    -6.023143     3.067734
H    -2.124247    -8.087932     0.457428
O    -1.800998    -7.600316     1.242348
H    -2.586587    -7.288282     1.699140
H    -0.381134     6.862740    -2.321113
O    -1.127181     7.282715    -2.820899
H    -1.917561     7.156425    -2.257766
H    -1.117658     4.309493     0.578605
O    -0.744111     4.370755    -0.317152
H    -1.450124     4.128123    -0.950021
H    -4.417573     2.761604     3.503228
O    -4.415888     2.940161     4.465770
H    -4.487802     2.055396     4.879887
H     2.017118    -3.581507     4.253972
O     1.953116    -4.052801     5.107699
H     2.460257    -3.516305     5.738238
H     4.682988    -3.195675     0.850738
O     4.523321    -3.120069    -0.115885
H     3.664312    -2.643005    -0.199994
H    -2.725751    -0.748859    -1.346118
O    -3.053296    -0.478079    -0.472034
H    -3.854180     0.046943    -0.679339
H    -1.617820    -0.762846    -4.625020
O    -1.110131    -0.547242    -5.428631
H    -0.400576     0.049305    -5.142927
H     1.792918    -1.716876    -3.367893
O     1.885153    -0.969587    -2.745343
H     1.107564    -0.392810    -2.876729
H     3.657085    -3.122269     2.561244
O     4.616203    -3.351446     2.489208
H     4.670352    -4.311648     2.616171
H     3.419214    -6.121445     3.135197
O     3.775837    -5.920706     2.235263
H     3.038670    -5.575495     1.691618
H    -3.345035     1.609518    -4.173292
O    -4.190290     1.139318    -3.983248
H    -4.408403     1.284911    -3.026603
H    -5.086519     4.148298     0.068128
O    -5.524601     3.282219    -0.036131
H    -6.455235     3.401048    -0.317041
H     6.730710    -1.184522    -1.350638
O     5.958201    -1.034390    -0.799333
H     5.538808    -1.901979    -0.601735
H     4.590893    -3.171249    -2.459071
O     3.723436    -2.999891    -2.875830
H     3.727067    -3.619170    -3.631559
H     4.427408    -2.292810     5.632466
O     4.083975    -2.757290     6.426083
H     4.418223    -3.662688     6.345053
H    -0.761803     6.339077     5.079711
O    -1.357971     6.916201     5.616701
H    -1.370701     7.792853     5.174590
H     4.695265    -0.138433    -1.456081
O     3.928168     0.404023    -1.719589
H     3.235758    -0.196578    -2.049828
H    -0.743622     4.521530    -4.032303
O    -1.525907     5.064800    -4.241359
H    -1.374634     5.931544    -3.818969
H     0.657417     3.202235    -2.651741
O     0.665440     3.578615    -3.560441
H     0.712861     2.814835    -4.145512
H    -5.389988    -5.192047     1.801064
O    -4.694309    -5.786812     1.443982
H    -3.853156    -5.372266     1.715017
H     7.879367    -1.694054    -4.021152
O     7.621214    -1.380365    -3.121760
H     7.134420    -0.536564    -3.278854
H     3.699266    -5.075773    -5.278634
O     4.461740    -4.702363    -4.797554
H     4.845603    -5.413205    -4.251098
H    -3.719025     0.064222     4.876822
O    -4.285974     0.546154     5.534242
H    -5.062322    -0.025610     5.682700
H     3.459534    -5.943833    -0.507521
O     4.332403    -5.697060    -0.825385
H     4.408791    -4.734700    -0.682165
H     4.998577    -0.339242    -4.150124
O     4.463529    -1.050703    -4.540149
H     4.136810    -1.633752    -3.822278
H    -1.174371     1.569896    -3.930695
O    -1.824273     2.190647    -4.317109
H    -1.466098     2.521636    -5.163375
H     4.880737    -6.324806    -2.302487
O     5.214256    -6.650050    -3.167789
H     6.031948    -7.131174    -2.980298
H     8.736865    -5.095785    -2.904053
O     8.045184    -5.513073    -2.345901
H     8.079550    -6.470458    -2.447562
H     2.334116     4.719096     0.458178
O     1.754697     4.701557     1.229232
H     1.396937     3.781383     1.306906
H    -4.425676    -2.632965     4.245369
O    -5.317606    -2.290543     4.040137
H    -5.176830    -1.513879     3.460036
H    -5.851618    -3.193693     1.324807
O    -6.315093    -3.749828     1.993155
H    -6.125878    -3.314624     2.843937
H     1.676704     3.470265     6.870347
O     1.051641     3.981153     6.334741
H     0.270739     4.140640     6.908795
H     4.993831    -2.169431     3.627037
O     5.013975    -1.450773     4.290861
H     4.202466    -0.894415     4.133204
H     2.381864    -5.575999     4.849530
O     2.762285    -6.459634     4.589971
H     2.017228    -7.041271     4.416127
H     2.255587    -4.520315    -6.779890
O     2.086129    -5.008225    -5.964062
H     1.820988    -4.316712    -5.309105
H     6.434722    -4.105527    -0.490586
O     7.187799    -4.508251    -0.026814
H     7.695326    -4.931503    -0.747127
H    -1.727439     4.485367     7.707852
O    -0.826641     4.590046     8.092207
H    -0.652520     5.550195     8.115724
H    -5.119000     5.691521    -5.595214
O    -4.511484     4.927956    -5.614787
H    -3.753805     5.142009    -6.180312
H     3.281288    -2.532618    -8.426784
O     3.193053    -3.064883    -7.625284
H     4.069375    -3.040562    -7.195846
H    -0.662106     8.825621    -2.275736
O    -0.539131     9.654517    -1.757497
H     0.222675     9.480264    -1.180090
H     2.060225    -0.911506     5.219743
O     1.485787    -1.434633     5.808227
H     1.582650    -1.090202     6.705479
H     5.203905    -2.028670    -5.682047
O     5.550394    -2.795203    -6.203503
H     5.276059    -3.584890    -5.685756
H     5.686718    -5.214519     4.698886
O     5.164260    -5.128744     5.525345
H     4.442684    -5.760746     5.439988
H    -4.031503     1.250596     7.032084
O    -3.989427     1.736953     7.892846
H    -4.876851     2.183373     7.985308
H    -1.854064     9.614520    -0.744396
O    -2.714724     9.488696    -0.270219
H    -3.325738     10.116619    -0.659252
H    -5.950912     4.688732    -2.937506
O    -6.859240     4.569851    -3.282630
H    -6.768416     3.866721    -3.958908
H     0.088989    -7.065569    -1.132188
O     0.553007    -7.501459    -0.384397
H    -0.126430    -7.695518     0.264512
H    -7.640696     3.790917    -1.973488
O    -7.903025     3.204699    -1.233249
H    -7.759464     2.295606    -1.571495
H     3.964949    -0.890614     6.996200
O     3.972702     0.073592     6.986987
H     4.785160     0.363720     6.555746
H     2.254836     5.794808    -1.174021
O     3.190389     5.502284    -1.059181
H     3.367318     4.961607    -1.851953
H     6.544159    -5.931456     0.685707
O     6.175301    -6.667431     1.219674
H     5.270654    -6.390151     1.446001
H    -3.867819     4.821475     7.810471
O    -3.295450     4.383394     7.139906
H    -3.466548     3.432074     7.250331
H     5.756083    -7.947478     0.152224
O     5.468706    -8.634889    -0.485187
H     4.639520    -8.309708    -0.879762
H    -0.538287     2.049192     7.688691
O    -1.205456     1.924989     6.989318
H    -1.946102     1.494508     7.430204
H    -6.387870    -0.120214     1.066307
O    -6.708225    -0.204150     0.153333
H    -7.626940    -0.474845     0.172245
H    -5.377231    -3.063820    -0.581684
O    -5.124633    -2.360801     0.042953
H    -5.695063    -1.588246    -0.144815
H     4.313103     5.576887     0.326927
O     4.646550     5.678115     1.232252
H     3.951756     6.188606     1.683838
H    -9.048219    -1.745376    -2.249772
O    -8.500685    -1.543295    -1.463757
H    -8.628024    -2.279359    -0.825381
H    -5.526060     3.468587    -5.525480
O    -6.043779     2.758324    -5.110592
H    -5.377574     2.173028    -4.695895
H     3.178203    -0.892584    -5.645698
O     2.322628    -1.012546    -6.112178
H     2.408068    -1.862030    -6.584736
H     8.112249    -1.354937    -6.016999
O     8.120225    -2.218663    -5.560033
H     7.264060    -2.618690    -5.810683
H     7.618978     0.985480    -6.299224
O     7.430296     0.136988    -6.712193
H     6.448950     0.086987    -6.748862
H    -7.866661    -3.690109     0.935810
O    -8.544953    -3.584471     0.251044
H    -8.445943    -4.344300    -0.349968
H    -2.411858     8.738027     1.294081
O    -2.261315     8.150111     2.047649
H    -1.491332     7.596539     1.825486
H    -4.450403     6.437774     3.498453
O    -4.619526     6.864090     2.641941
H    -3.855828     7.449619     2.502443
H     3.398073     3.443598    -3.570138
O     3.244759     4.412926    -3.477316
H     2.279913     4.477455    -3.585540
H    -6.119575    -1.606493    -3.437123
O    -6.202984    -2.185483    -2.653068
H    -6.986887    -1.877782    -2.144572
H     6.460106     1.051017     4.749666
O     6.065710     1.590282     5.452059
H     6.254018     2.508769     5.160489
H     1.359663     1.718338    -5.815631
O     1.164706     1.123098    -5.061043
H     1.528080     0.259719    -5.330024
H    -2.445547     3.028630     10.480071
O    -2.273768     2.098651     10.241897
H    -2.854687     1.944406     9.479796
H     7.620457    -0.497872     3.094904
O     6.870462     0.078007     3.263205
H     6.177923    -0.522113     3.642404
H    -5.665362    -8.053478    -0.691565
O    -4.930887    -8.122128    -0.044804
H    -4.934654    -7.304535     0.476860
H    -5.180413    -0.120551    -4.710525
O    -5.797308    -0.832415    -4.950533
H    -6.635394    -0.390853    -5.149084
H     1.888292    -0.203369    -7.506643
O     1.687289     0.267990    -8.350988
H     2.264161    -0.137919    -9.003490
H     4.871385    -1.399901    -9.293426
O     3.946447    -1.170979    -9.576340
H     3.926648    -1.289855    -10.525257
H     7.555960    -2.570251     4.212564
O     7.703293    -2.606736     3.253185
H     7.210115    -3.397767     2.981461
H     6.713020    -5.895023     2.698845
O     6.774658    -5.219357     3.399569
H     7.650314    -5.304499     3.817802
H    -1.826706     8.950222     3.498085
O    -1.579535     9.255834     4.396270
H    -2.428600     9.388293     4.851298
H    -7.392635     1.565859    -5.248022
O    -7.967692     0.821827    -5.003205
H    -8.869371     1.221519    -4.927739
H     6.924732    -1.089574    -8.392807
O     6.342950    -1.810805    -8.656348
H     6.114517    -2.260078    -7.824206
H    -1.677265     6.237547    -7.019695
O    -2.075498     5.412520    -6.745927
H    -1.827598     5.282127    -5.782064
H    -0.013414     3.313559     9.027339
O     0.183270     2.394254     9.285357
H    -0.619930     2.129835     9.783838
H     6.751750    -2.782881    -2.692604
O     6.221050    -3.526833    -2.351373
H     6.689468    -4.337905    -2.597178
H    -4.081144    -3.075307    -4.936116
O    -4.234758    -2.963227    -5.901127
H    -4.782070    -2.170246    -5.957948
H     1.969265     2.189887     8.472360
O     2.634173     2.300057     7.782965
H     3.056748     1.429834     7.668738
H    -6.913423    -5.201098    -1.387751
O    -7.828957    -5.470728    -1.633769
H    -7.961950    -5.068645    -2.516993
H    -3.833478     5.257077     5.700213
O    -3.802232     6.027217     5.112254
H    -2.868200     6.321700     5.204813
H    -7.889423     0.088300    -1.962253
O    -7.399700     0.811548    -2.376509
H    -7.627489     0.799523    -3.329767
H     5.831736     0.129296     0.422372
O     5.609681     0.851289     1.042687
H     6.119575     0.656592     1.855927
H    -6.419676     3.405223     7.292886
O    -6.308240     2.923550     8.152080
H    -6.920487     2.168079     8.102678
H     2.271585    -8.074603    -0.828845
O     2.948903    -8.062738    -1.524839
H     2.724001    -8.777193    -2.137498
H    -2.747903    -3.964859    -6.188154
O    -1.994207    -4.530838    -5.955877
H    -1.718497    -4.238944    -5.058607
H    -5.654380     3.765969     5.308891
O    -6.318077     4.167058     5.908901
H    -6.136513     5.107912     5.912900
H    -1.023926    -7.116055    -3.151507
O    -0.551543    -6.445924    -2.623745
H     0.356143    -6.377084    -3.004079
H     4.436933     2.019557     5.137378
O     3.495250     2.258799     5.017145
H     3.111038     2.276084     5.898984
H     4.101554     4.660783     6.308045
O     4.182520     5.390638     5.689653
H     3.615124     5.149754     4.918654
H     2.757896     3.620002     3.929761
O     2.579881     4.559924     3.763478
H     2.461053     4.657957     2.796872
H     9.388627     0.208446    -1.058953
O     8.582534     0.372078    -0.565758
H     8.406080    -0.446450    -0.072340
H    -2.116128     5.321551     10.654849
O    -2.834620     4.690389     10.888311
H    -3.054622     4.871870     11.802168
H     7.966809    -3.010745     0.340959
O     8.388119    -2.164034     0.595748
H     8.321738    -2.158449     1.558014
H     5.364193     3.666694     3.533177
O     6.019920     3.932351     4.199878
H     5.607167     4.651078     4.700546
H    -4.222766     5.021734     9.788916
O    -4.848397     5.180578     9.062205
H    -5.475614     4.445332     9.056831
H    -7.015417    -3.478685    -3.478464
O    -7.635850    -4.090617    -3.926960
H    -7.114447    -4.533273    -4.628510
H     0.014139     6.135779     10.775610
O    -0.850441     6.466714     10.527725
H    -0.734012     6.896587     9.661247
H     2.585997     1.492838    -4.097166
O     3.464435     1.845504    -3.858479
H     3.784119     1.331059    -3.087313
H    -7.185851    -0.205724     7.323305
O    -7.559352     0.370283     8.021110
H    -8.511054     0.255577     7.953234
H    -2.750169    -9.872927    -0.816365
O    -2.686977    -8.931560    -0.977778
H    -3.592709    -8.564535    -0.737078
H    -10.071246     3.075367    -4.897240
O    -10.188985     2.158149    -4.616015
H    -10.404803     2.242905    -3.666338
H    -2.073970    -3.027589     4.616031
O    -2.948604    -3.465611     4.689638
H    -2.948451    -4.081285     3.932637
H    -0.186659    -7.980172     2.499798
O     0.640225    -7.769733     2.946777
H     1.357949    -8.066616     2.359918
H     6.696766    -2.372638     6.405189
O     7.146333    -3.082836     5.942444
H     6.516219    -3.817578     5.904121
H    -5.408310    -1.699791     6.862280
O    -6.114738    -1.305784     6.316770
H    -6.038573    -1.786792     5.461112
H     0.834648     3.028082    -7.108385
O     1.752315     2.697274    -7.164169
H     1.738487     1.949056    -7.789167
H    -3.960428     8.763605     6.672840
O    -3.960082     8.760743     5.715451
H    -4.084698     7.832788     5.448884
H    -2.061706     10.313421    -2.737492
O    -2.963203     10.495215    -3.039663
H    -2.891037     11.128224    -3.753361
H     9.402303    -4.060134     4.059244
O     9.122607    -4.737754     4.682392
H     8.692494    -4.264884     5.405831
H    -0.739056    -6.000481    -5.828739
O    -0.035853    -6.567190    -5.494989
H     0.799862    -6.105939    -5.712327
H     1.821335     8.276130     0.667529
O     1.518481     8.597532    -0.210321
H     2.333289     8.634725    -0.740646
H     3.496415     2.924804    -6.654896
O     4.323877     2.634874    -6.245102
H     4.078218     2.361861    -5.336102
H     3.729618     7.123933    -1.225205
O     3.935882     8.059447    -1.439253
H     4.305325     8.002494    -2.332429
H     4.392940    -0.013370    -7.901938
O     4.770079     0.133565    -7.032656
H     4.588264     1.065649    -6.789733
H     6.025641     1.931886    -0.466338
O     6.591384     2.124468    -1.227946
H     7.415707     1.644639    -1.033347
H     6.677310    -8.433714    -1.590163
O     7.313760    -8.223933    -2.326618
H     7.679838    -9.058657    -2.613906
H    -5.305966    -5.790184    -5.397575
O    -5.922825    -5.118407    -5.713451
H    -5.371349    -4.350431    -5.950246
H     0.674093     7.180052     7.604586
O    -0.227471     7.209149     7.963619
H    -0.782815     7.221604     7.146095
H    -8.901768    -2.833870    -4.095935
O    -9.422501    -2.025231    -3.929779
H    -9.135589    -1.360866    -4.560062
H    -2.416282    -5.988456    -2.131732
O    -3.293993    -5.701951    -2.401545
H    -3.480870    -6.077611    -3.286863
H    -2.991090    -5.902345    -5.398585
O    -3.591443    -6.511679    -4.926437
H    -3.109708    -7.331800    -4.758442
H    -1.392353     3.722891    -6.978285
O    -0.852123     2.967344    -6.706781
H    -1.089183     2.181703    -7.255937
H    -0.206164     0.412417    -8.208435
O    -1.102233     0.648173    -7.925562
H    -1.277887     0.125227    -7.127280
H    -10.426363     4.054749    -2.734018
O    -10.494582     3.276633    -2.165256
H    -9.665149     3.249905    -1.656344
H     4.574716     4.081425     1.727593
O     4.366394     3.160815     2.007334
H     5.081743     2.584347     1.725850
H     6.482210     1.394466    -4.209889
O     6.178823     0.770901    -3.515587
H     6.209361     1.266988    -2.672144
H     9.627325    -2.228454    -0.916082
O     9.904426    -2.014519    -1.815836
H     9.104223    -1.676147    -2.259847
H     9.964345    -3.324823    -3.084239
O     9.697629    -3.977282    -3.758896
H     9.304108    -3.470150    -4.479595
H    -7.705498    -8.572926    -1.654416
O    -6.967518    -7.979038    -1.784024
H    -7.344742    -7.065805    -1.774638
H     4.157815     6.078331    -3.815417
O     4.819012     6.779535    -3.730767
H     5.655066     6.325523    -3.592570
H     0.092294    -8.173450    -5.201705
O     0.116061    -9.156278    -5.069288
H     0.266829    -9.520526    -5.941597
H    -2.339547    -8.673841    -2.702652
O    -2.105245    -8.411038    -3.612442
H    -1.458540    -9.029979    -3.970154
H     2.176622    -10.818819    -3.478982
O     2.131304    -9.864208    -3.456004
H     1.346002    -9.593530    -3.982453
H     6.832590     3.326820    -4.566262
O     6.891068     2.648129    -5.266609
H     6.097722     2.780761    -5.807641
H    -3.761323    -3.371492     7.668343
O    -3.616302    -2.647573     7.053389
H    -3.390453    -3.072318     6.198964
H    -0.641524    -3.365980    -6.714235
O    -0.011160    -2.634629    -6.722405
H    -0.492828    -1.858853    -6.381315
H     0.656840     0.471052     8.754326
O     0.644688    -0.250382     8.120582
H    -0.288607    -0.510691     8.042626
H    -5.836739     7.367739    -4.251412
O    -6.339554     6.748710    -4.812328
H    -6.626658     6.017980    -4.220847
H    -4.281209     9.103507    -3.263843
O    -4.817196     8.307626    -3.157189
H    -4.409074     7.828366    -2.417930
H    -9.714121     5.797384    -4.646673
O    -10.247741     4.992955    -4.482825
H    -11.128077     5.193625    -4.802475
H     2.761071     6.519681     6.145329
O     1.800922     6.616306     6.242662
H     1.456610     5.703466     6.140403
H     4.799284     8.547644     0.087939
O     5.116477     8.549227     1.008957
H     5.523067     7.684894     1.140707
H     4.137486    -7.429094    -4.327799
O     3.379819    -7.714259    -4.870487
H     3.098986    -8.554728    -4.493661
H     0.371138     8.663932     4.236527
O     1.048885     8.018983     4.009326
H     1.274567     7.526684     4.824496
H     5.231678     4.189043    -3.150736
O     6.193115     4.159109    -3.097514
H     6.401639     3.578114    -2.349217
H    -2.512585    -1.321617     7.687252
O    -2.047393    -0.611063     8.163899
H    -2.347444    -0.706539     9.071473
H    -9.030305     7.937533    -4.148337
O    -8.966911     7.352504    -4.904760
H    -8.009766     7.187989    -5.039177
H     3.523272    -8.978945     1.105926
O     2.846280    -8.347037     1.353490
H     3.320353    -7.541549     1.633778
H     3.579212     8.173924     1.832989
O     2.788637     7.610583     1.945567
H     2.342174     7.847073     2.771338
N    -4.866115    -0.666311     9.220700
H    -4.569277     0.156362     8.788269
H    -5.806880    -0.515822     9.360860
