603

H     0.205437     3.019419    -0.670564
O     0.727719     2.349040    -1.161661
H     1.666210     2.475840    -0.886287
H    -0.091984    -1.314367     3.162209
O     0.305043    -0.615785     2.619377
H    -0.171648     0.199274     2.849570
H    -2.395646     2.406048    -0.532795
O    -2.187586     1.935415     0.291829
H    -2.206951     0.987432     0.067427
H    -4.670794     0.551152     2.181541
O    -4.990050    -0.381438     2.195181
H    -4.485915    -0.860981     1.529624
H     0.056592    -0.318171     0.962955
O    -0.137241    -0.082381     0.035193
H     0.203189     0.813853    -0.085373
H    -0.176659    -3.585324     3.791477
O    -0.452734    -2.753199     4.210499
H     0.191150    -2.582694     4.913931
H    -4.887285     2.534491     1.327541
O    -4.250049     2.123878     1.943969
H    -3.406456     2.103482     1.432769
H    -3.238261     3.894282    -2.211960
O    -2.502685     3.295598    -1.978848
H    -2.143274     3.006000    -2.837537
H    -0.141832    -3.814724     0.518103
O     0.200958    -2.997636     0.935253
H    -0.585854    -2.508545     1.244592
H    -2.392432    -1.540459     2.475985
O    -2.201320    -2.007231     1.636038
H    -2.457814    -1.420810     0.905299
H     2.066369    -1.460693    -1.104743
O     2.295660    -1.714604    -0.186847
H     1.503620    -2.138506     0.195612
H    -1.395487     1.819213     1.917509
O    -1.488778     1.422473     2.793834
H    -1.474899     2.135541     3.458089
H     0.199289    -2.715995    -1.556638
O    -0.554005    -2.102083    -1.613429
H    -0.374213    -1.375654    -0.979791
H    -3.449459    -2.926932    -0.385987
O    -2.732202    -3.421238    -0.804130
H    -2.020142    -2.792703    -1.021675
H     2.761379     0.112960     2.950168
O     2.857814    -0.069268     3.912237
H     2.950346     0.823827     4.316387
H    -3.515956     6.378785    -0.546225
O    -3.274075     7.040111    -1.246403
H    -3.131204     7.885259    -0.776520
H     3.895519     0.563549     1.203837
O     2.944559     0.383335     1.318854
H     2.706243    -0.367789     0.738404
H    -5.780735     0.846422    -1.607792
O    -4.869666     1.171340    -1.479669
H    -4.979636     2.000579    -0.969200
H    -1.207240     5.391859     2.212996
O    -1.833629     4.646020     2.095614
H    -1.914789     4.228601     2.958407
H     3.494836     2.743041     0.440661
O     3.248900     2.699985    -0.498990
H     3.579847     1.856261    -0.848144
H     1.476533    -4.712906    -2.235934
O     1.545191    -3.937168    -1.660935
H     2.340285    -3.476776    -2.012499
H    -0.921954    -0.095468    -2.540329
O    -0.284636     0.554550    -2.863223
H    -0.024885     1.137215    -2.126345
H     1.675666    -4.700129    -0.167745
O     1.777796    -5.338141     0.574215
H     1.311152    -6.150108     0.280020
H    -1.235410    -3.275989    -2.869532
O    -1.060624    -3.959625    -3.529582
H    -0.938978    -4.807377    -3.060475
H    -2.787040     3.309834     4.705739
O    -1.805667     3.304272     4.673898
H    -1.515950     2.902635     5.511272
H     0.961470     5.024896     4.083741
O     0.015936     5.259630     4.133721
H    -0.458841     4.457999     4.391246
H    -1.748029    -4.657528    -0.360067
O    -0.983990    -5.197961    -0.072071
H    -1.333679    -5.886466     0.503538
H    -3.901658     5.830082    -2.601655
O    -4.253842     4.996561    -2.931355
H    -4.097196     4.960501    -3.899235
H    -2.449601    -3.692008     1.944262
O    -2.471331    -4.595104     2.322114
H    -1.532338    -4.836372     2.464103
H    -4.702724    -2.980172    -2.896115
O    -3.850011    -3.215366    -3.300328
H    -3.522429    -4.009897    -2.834054
H     0.327712     1.369611     4.624447
O     0.837507     2.127444     4.291466
H     0.885515     2.787472     4.997441
H    -4.671348    -5.169471    -1.566198
O    -5.373264    -4.813309    -0.994207
H    -5.163022    -5.167869    -0.109367
H     2.312170    -6.503029    -4.017416
O     1.975911    -6.171324    -3.164331
H     2.398580    -6.755173    -2.501739
H     0.460302    -3.394614    -3.991797
O     1.265308    -3.029927    -4.412818
H     0.948705    -2.658813    -5.262683
H     1.944441    -1.765073     2.998239
O     2.101376    -2.695730     2.780928
H     1.415636    -2.910266     2.113503
H    -3.018576    -1.814356    -3.204450
O    -2.594095    -0.928880    -3.139290
H    -3.247286    -0.281898    -3.460961
H    -3.184710     4.974697     1.078786
O    -3.964388     5.349921     0.622349
H    -4.379590     5.909468     1.327158
H     0.871156     2.242776     2.601091
O     0.974154     2.236792     1.630102
H     1.699821     1.611658     1.467975
H     0.201710     5.645074    -0.752807
O     0.726364     6.305001    -1.261069
H     0.869224     7.105036    -0.705834
H     0.351283     7.026838     2.595452
O    -0.010203     6.646474     1.777733
H     0.652570     5.973961     1.518200
H    -2.492020     0.214429     3.345692
O    -2.716854    -0.598674     3.850787
H    -1.958014    -0.639746     4.474216
H    -0.910389     0.551055     6.032989
O    -0.635695     0.029689     5.259910
H     0.074574    -0.575672     5.549065
H     0.682288    -5.004936     1.995203
O     0.143779    -5.108554     2.801888
H     0.278578    -6.034232     3.071920
H    -2.145940    -8.092355     0.462054
O    -1.827525    -7.602024     1.246825
H    -2.615811    -7.290667     1.699000
H    -0.361613     6.852219    -2.322192
O    -1.105926     7.273755    -2.823177
H    -1.897364     7.150008    -2.260995
H    -1.108591     4.302602     0.577799
O    -0.733599     4.361764    -0.317557
H    -1.439629     4.121278    -0.951208
H    -4.414900     2.751883     3.505589
O    -4.414601     2.923015     4.470046
H    -4.501493     2.040555     4.879694
H     2.000191    -3.598312     4.257985
O     1.951805    -4.082880     5.105472
H     2.437633    -3.534491     5.743057
H     4.674928    -3.207670     0.857685
O     4.511605    -3.144269    -0.109670
H     3.655066    -2.662723    -0.194822
H    -2.727743    -0.752631    -1.346899
O    -3.055752    -0.480696    -0.473263
H    -3.854736     0.046676    -0.682165
H    -1.615107    -0.771145    -4.624182
O    -1.105711    -0.557193    -5.427085
H    -0.394979     0.037629    -5.140783
H     1.791086    -1.733496    -3.362223
O     1.884685    -0.986972    -2.738787
H     1.109264    -0.407494    -2.871852
H     3.594412    -2.998063     2.507306
O     4.558398    -3.234820     2.451945
H     4.555930    -4.192923     2.599334
H     3.289086    -6.074402     3.063641
O     3.724139    -5.838621     2.201810
H     3.008141    -5.507476     1.617729
H    -3.336559     1.606168    -4.175964
O    -4.183115     1.138022    -3.986641
H    -4.402257     1.284972    -3.030550
H    -5.077187     4.151096     0.062462
O    -5.517789     3.286071    -0.040705
H    -6.447317     3.407402    -0.324645
H     6.727225    -1.212866    -1.339969
O     5.955896    -1.061509    -0.787251
H     5.532932    -1.927827    -0.593116
H     4.585562    -3.195547    -2.448366
O     3.718336    -3.022965    -2.865427
H     3.721676    -3.641146    -3.622340
H     4.411742    -2.309370     5.643137
O     4.064888    -2.773568     6.435701
H     4.400263    -3.678748     6.360421
H    -0.752780     6.333835     5.078084
O    -1.348910     6.911698     5.614542
H    -1.359244     7.788409     5.172218
H     4.695371    -0.162261    -1.446799
O     3.929859     0.381868    -1.711094
H     3.236423    -0.216660    -2.042961
H    -0.727753     4.511343    -4.032756
O    -1.508526     5.056294    -4.242883
H    -1.355644     5.922962    -3.820881
H     0.667843     3.188822    -2.649649
O     0.678295     3.564684    -3.558443
H     0.724333     2.800590    -4.143210
H    -5.407507    -5.187436     1.798164
O    -4.711846    -5.784093     1.444457
H    -3.870448    -5.371053     1.716714
H     7.878481    -1.727904    -4.006487
O     7.619556    -1.412998    -3.107556
H     7.135921    -0.567651    -3.266273
H     3.691673    -5.098332    -5.268357
O     4.453760    -4.726347    -4.785475
H     4.835454    -5.438724    -4.239067
H    -3.800418     0.022402     4.936980
O    -4.400617     0.488754     5.568304
H    -5.063459    -0.167117     5.859329
H     3.412860    -5.900340    -0.737011
O     4.334320    -5.652596    -0.849047
H     4.357583    -4.677566    -0.731667
H     5.001852    -0.364662    -4.140339
O     4.465429    -1.075113    -4.530364
H     4.136091    -1.656601    -3.812765
H    -1.166187     1.560807    -3.930662
O    -1.814003     2.183141    -4.317833
H    -1.454122     2.512842    -5.163942
H     4.871096    -6.351543    -2.284509
O     5.200938    -6.671476    -3.153169
H     6.015211    -7.160212    -2.969200
H     8.726211    -5.130653    -2.883848
O     8.035467    -5.545196    -2.322857
H     8.061986    -6.502828    -2.430980
H     2.344248     4.702804     0.461681
O     1.763876     4.686954     1.232066
H     1.403380     3.767929     1.309628
H    -4.437344    -2.629063     4.234908
O    -5.329890    -2.286858     4.030850
H    -5.189805    -1.506892     3.454549
H    -5.863943    -3.188624     1.318723
O    -6.329802    -3.743427     1.986725
H    -6.141703    -3.307912     2.837255
H     1.676091     3.459707     6.872695
O     1.055565     3.976095     6.336899
H     0.271998     4.132345     6.906928
H     4.985095    -2.181812     3.639799
O     5.004098    -1.466138     4.308016
H     4.193771    -0.908992     4.146179
H     2.360152    -5.530285     4.843699
O     2.706039    -6.435480     4.587913
H     1.905149    -6.960277     4.454671
H     2.251385    -4.539891    -6.772104
O     2.080035    -5.026647    -5.956001
H     1.815393    -4.334278    -5.302047
H     6.420433    -4.142352    -0.468187
O     7.168030    -4.555038    -0.003981
H     7.677274    -4.969322    -0.728992
H    -1.734204     4.491223     7.703569
O    -0.835659     4.587246     8.090335
H    -0.652347     5.545991     8.114376
H    -5.098087     5.691987    -5.601939
O    -4.492373     4.926923    -5.620135
H    -3.733607     5.138634    -6.185086
H     3.284442    -2.555734    -8.418521
O     3.193610    -3.086804    -7.616509
H     4.069599    -3.065276    -7.186355
H    -0.637438     8.815938    -2.278256
O    -0.513107     9.644643    -1.760099
H     0.247559     9.468785    -1.181699
H     2.046766    -0.925121     5.226507
O     1.474200    -1.452299     5.813229
H     1.563882    -1.103425     6.709689
H     5.204799    -2.055788    -5.671333
O     5.550144    -2.823573    -6.191463
H     5.272517    -3.612349    -5.674006
H     5.651389    -5.281895     4.773209
O     5.217391    -5.175092     5.650234
H     4.470355    -5.777048     5.662893
H    -3.991236     1.153259     7.008215
O    -3.799250     1.629474     7.851842
H    -4.674840     2.017774     8.110634
H    -1.829634     9.608668    -0.748858
O    -2.691225     9.485087    -0.275768
H    -3.300068     10.114651    -0.665569
H    -5.936132     4.692742    -2.944949
O    -6.844432     4.575844    -3.290796
H    -6.754640     3.872435    -3.966918
H     0.065388    -7.077187    -1.125741
O     0.532346    -7.505653    -0.376161
H    -0.143775    -7.707884     0.273821
H    -7.629667     3.800073    -1.982357
O    -7.893823     3.214672    -1.242042
H    -7.752877     2.305185    -1.580404
H     3.950730    -0.907101     7.005127
O     3.962236     0.056980     6.995205
H     4.775959     0.344315     6.564558
H     2.270154     5.778033    -1.171044
O     3.204668     5.482728    -1.054719
H     3.381250     4.941537    -1.847204
H     6.600680    -5.922871     0.717920
O     6.220919    -6.654371     1.264221
H     5.294944    -6.362704     1.385842
H    -3.877138     4.737169     7.778631
O    -3.310335     4.272076     7.121340
H    -3.506959     3.329367     7.232205
H     5.717332    -7.975034     0.075842
O     5.472022    -8.721530    -0.503314
H     4.621128    -8.452119    -0.897631
H    -0.573730     2.040515     7.700375
O    -1.205473     1.976040     6.963982
H    -2.075298     1.838036     7.358980
H    -6.392143    -0.112935     1.060392
O    -6.710576    -0.196312     0.146909
H    -7.630033    -0.464812     0.163108
H    -5.385943    -3.060251    -0.585166
O    -5.132978    -2.357595     0.039918
H    -5.700788    -1.583647    -0.149830
H     4.325696     5.555372     0.332801
O     4.658108     5.655725     1.238607
H     3.964340     6.168740     1.688963
H    -9.051282    -1.732202    -2.258787
O    -8.504323    -1.531377    -1.471941
H    -8.634783    -2.267126    -0.833798
H    -5.511011     3.470405    -5.531834
O    -6.031073     2.761688    -5.117204
H    -5.366951     2.174735    -4.701656
H     3.181989    -0.913977    -5.638544
O     2.326527    -1.032204    -6.105480
H     2.410522    -1.881906    -6.578033
H     8.115477    -1.389737    -6.002092
O     8.120200    -2.252999    -5.544199
H     7.263655    -2.651185    -5.796535
H     7.628577     0.951911    -6.286655
O     7.438185     0.103433    -6.698845
H     6.456784     0.056161    -6.737327
H    -7.879664    -3.679928     0.928754
O    -8.556389    -3.571692     0.242928
H    -8.459194    -4.332104    -0.357748
H    -2.392572     8.734596     1.289420
O    -2.244623     8.146493     2.043381
H    -1.475631     7.591058     1.822447
H    -4.439572     6.441442     3.491869
O    -4.607000     6.866872     2.634543
H    -3.841831     7.450709     2.495733
H     3.410382     3.422464    -3.564553
O     3.259599     4.392191    -3.472273
H     2.295109     4.459429    -3.581954
H    -6.120695    -1.602350    -3.442070
O    -6.206430    -2.180288    -2.657454
H    -6.990756    -1.870649    -2.150813
H     6.455067     1.026819     4.760359
O     6.061358     1.566580     5.462586
H     6.251306     2.484796     5.171045
H     1.370532     1.701631    -5.811843
O     1.173341     1.107252    -5.057061
H     1.534363     0.242731    -5.325560
H    -2.507929     2.970945     10.486342
O    -2.297518     2.062567     10.214180
H    -2.894620     1.863757     9.481073
H     7.613999    -0.526168     3.108031
O     6.865101     0.051458     3.274399
H     6.170063    -0.545208     3.654873
H    -5.687551    -8.049402    -0.692861
O    -4.954413    -8.119423    -0.044825
H    -4.956669    -7.301592     0.476144
H    -5.175996    -0.119396    -4.714905
O    -5.794507    -0.829758    -4.955065
H    -6.631144    -0.386114    -5.155141
H     1.896349    -0.222424    -7.501301
O     1.697891     0.249258    -8.345988
H     2.274400    -0.158520    -8.997658
H     4.878708    -1.427610    -9.283460
O     3.954762    -1.196252    -9.567545
H     3.935848    -1.315434    -10.516454
H     7.542666    -2.595109     4.227296
O     7.693066    -2.637237     3.268557
H     7.190373    -3.421702     2.997695
H     6.769466    -5.819446     2.720394
O     6.798760    -5.201797     3.477094
H     7.689348    -5.280567     3.882342
H    -1.809653     8.946320     3.494229
O    -1.562763     9.251152     4.392756
H    -2.412038     9.386638     4.846457
H    -7.383039     1.572696    -5.256146
O    -7.960243     0.830393    -5.011180
H    -8.861080     1.232440    -4.937471
H     6.931870    -1.122367    -8.380030
O     6.348258    -1.841979    -8.643906
H     6.117767    -2.290526    -7.811980
H    -1.653115     6.228209    -7.022274
O    -2.053607     5.404253    -6.748567
H    -1.807482     5.273874    -5.784315
H    -0.014164     3.310377     9.030024
O     0.179795     2.390263     9.286310
H    -0.620244     2.129047     9.791685
H     6.746322    -2.813553    -2.677777
O     6.214861    -3.555457    -2.333240
H     6.679719    -4.368128    -2.581154
H    -4.084084    -3.077056    -4.937680
O    -4.235904    -2.964855    -5.902910
H    -4.781349    -2.170695    -5.960933
H     1.962760     2.177606     8.477040
O     2.628206     2.287084     7.788015
H     3.048244     1.415566     7.674681
H    -6.927006    -5.193609    -1.392491
O    -7.843047    -5.460393    -1.639266
H    -7.973798    -5.058872    -2.523077
H    -3.830548     5.263226     5.694681
O    -3.794500     6.030801     5.102977
H    -2.859972     6.322862     5.198585
H    -7.888197     0.098014    -1.970845
O    -7.395664     0.819857    -2.384222
H    -7.622200     0.808331    -3.337893
H     5.829950     0.103817     0.432905
O     5.608633     0.826597     1.052402
H     6.117004     0.631579     1.866446
H    -6.226927     3.327020     7.391537
O    -6.101883     2.809279     8.220923
H    -6.704253     2.049625     8.132408
H     2.264702    -8.103184    -0.801679
O     2.928160    -8.075718    -1.509921
H     2.707090    -8.796853    -2.116547
H    -2.751530    -3.970768    -6.187643
O    -1.999376    -4.538266    -5.954177
H    -1.724348    -4.247009    -5.056584
H    -5.650376     3.773572     5.305003
O    -6.299289     4.172545     5.920789
H    -6.133469     5.116176     5.906278
H    -1.040452    -7.125292    -3.147159
O    -0.567418    -6.454477    -2.620462
H     0.341220    -6.390048    -2.998684
H     4.433195     1.999820     5.145907
O     3.492364     2.240897     5.023575
H     3.106465     2.260171     5.904714
H     4.103147     4.642891     6.314414
O     4.187967     5.371694     5.695292
H     3.620716     5.132200     4.923793
H     2.760210     3.604031     3.934514
O     2.585947     4.544483     3.767275
H     2.468191     4.642436     2.800547
H     9.388862     0.172684    -1.043731
O     8.582986     0.338634    -0.550874
H     8.403143    -0.479352    -0.058395
H    -2.113374     5.329152     10.651707
O    -2.837383     4.702699     10.882464
H    -3.057326     4.881969     11.796867
H     7.954537    -3.046989     0.357309
O     8.377978    -2.201593     0.610504
H     8.311523    -2.191534     1.572691
H     5.367264     3.643899     3.541610
O     6.022851     3.907609     4.209180
H     5.611473     4.627681     4.709141
H    -4.220664     5.036143     9.782209
O    -4.851840     5.187954     9.058705
H    -5.465926     4.441152     9.056063
H    -7.021321    -3.472106    -3.484024
O    -7.642825    -4.082449    -3.932996
H    -7.121711    -4.527081    -4.633546
H     0.017239     6.131965     10.774820
O    -0.846054     6.465249     10.525605
H    -0.727619     6.894554     9.659030
H     2.593871     1.473670    -4.091917
O     3.472960     1.823904    -3.851842
H     3.790060     1.309179    -3.079987
H    -6.994047    -0.199724     7.217681
O    -7.500762     0.580697     7.496056
H    -8.122310     0.764842     6.790703
H    -2.774562    -9.876355    -0.812928
O    -2.710550    -8.935226    -0.975655
H    -3.615236    -8.566621    -0.735503
H    -10.058127     3.089480    -4.909617
O    -10.178284     2.172667    -4.628081
H    -10.395553     2.258344    -3.678845
H    -2.092471    -3.022580     4.624304
O    -2.968348    -3.460311     4.693106
H    -2.962431    -4.079132     3.937385
H    -0.415274    -7.836171     2.488174
O     0.405066    -7.767028     3.002350
H     1.128457    -8.060038     2.402948
H     6.684730    -2.391826     6.416963
O     7.128904    -3.106072     5.955167
H     6.496089    -3.838143     5.925335
H    -5.298016    -1.989452     6.947179
O    -5.971854    -1.489829     6.461431
H    -5.955317    -1.868078     5.552741
H     0.850766     3.012175    -7.105939
O     1.767545     2.678622    -7.159951
H     1.752680     1.930436    -7.784978
H    -3.949963     8.766658     6.665942
O    -3.945897     8.763272     5.708588
H    -4.073547     7.835814     5.441753
H    -2.032536     10.307200    -2.742618
O    -2.933215     10.490901    -3.046040
H    -2.858690     11.123632    -3.759745
H     9.384852    -4.097086     4.077409
O     9.092828    -4.773935     4.695877
H     8.673444    -4.297501     5.423433
H    -0.748284    -6.011308    -5.824914
O    -0.047261    -6.579314    -5.488879
H     0.790175    -6.121310    -5.705898
H     1.840622     8.261267     0.668629
O     1.539792     8.582856    -0.209833
H     2.355434     8.617918    -0.739020
H     3.511665     2.902005    -6.648907
O     4.337755     2.610061    -6.237765
H     4.090098     2.338214    -5.329029
H     3.748496     7.103093    -1.221009
O     3.957470     8.037930    -1.435200
H     4.327936     7.979693    -2.327867
H     4.402351    -0.039442    -7.893066
O     4.778325     0.107053    -7.023190
H     4.598724     1.039834    -6.781333
H     6.029580     1.905697    -0.456259
O     6.596851     2.095972    -1.217284
H     7.419849     1.614630    -1.021188
H     6.661191    -8.452415    -1.593207
O     7.306514    -8.243737    -2.325579
H     7.663746    -9.082506    -2.611927
H    -5.315360    -5.789254    -5.399557
O    -5.930001    -5.115738    -5.716089
H    -5.376170    -4.349573    -5.953073
H     0.681601     7.171546     7.604672
O    -0.220480     7.201793     7.962556
H    -0.774524     7.217232     7.144085
H    -8.905499    -2.822453    -4.104122
O    -9.423797    -2.012130    -3.938592
H    -9.134792    -1.349053    -4.569272
H    -2.431155    -5.993862    -2.129853
O    -3.307256    -5.703891    -2.401147
H    -3.494307    -6.080287    -3.286216
H    -3.000644    -5.907871    -5.397159
O    -3.603327    -6.514847    -4.925094
H    -3.124293    -7.336438    -4.756069
H    -1.374475     3.712975    -6.979151
O    -0.836796     2.956039    -6.706393
H    -1.075088     2.170871    -7.255719
H    -0.195464     0.398703    -8.206291
O    -1.091166     0.637152    -7.924532
H    -1.269471     0.114777    -7.126497
H    -10.413694     4.070657    -2.747138
O    -10.484391     3.292942    -2.178103
H    -9.655959     3.264699    -1.667833
H     4.581020     4.060121     1.734658
O     4.370352     3.139847     2.014024
H     5.085120     2.562073     1.733907
H     6.489946     1.364553    -4.199128
O     6.184238     0.742186    -3.504643
H     6.214718     1.239081    -2.661704
H     9.620841    -2.264764    -0.899491
O     9.900006    -2.050403    -1.798364
H     9.101026    -1.711636    -2.244348
H     9.958464    -3.362476    -3.067151
O     9.689758    -4.014878    -3.740827
H     9.299260    -3.507619    -4.463040
H    -7.727229    -8.563900    -1.659298
O    -6.987829    -7.971434    -1.787292
H    -7.363069    -7.057529    -1.778766
H     4.177388     6.055117    -3.810202
O     4.840316     6.754562    -3.724751
H     5.675047     6.298453    -3.585523
H     0.076080    -8.187049    -5.194856
O     0.095723    -9.169518    -5.061636
H     0.248566    -9.535302    -5.932912
H    -2.359789    -8.679697    -2.698974
O    -2.123668    -8.416994    -3.608426
H    -1.478530    -9.038043    -3.965524
H     2.153938    -10.835541    -3.461210
O     2.112230    -9.880404    -3.447196
H     1.325093    -9.611233    -3.970779
H     6.846046     3.295979    -4.555902
O     6.903435     2.616383    -5.255449
H     6.111494     2.751192    -5.798007
H    -3.596830    -3.712474     7.729527
O    -3.706506    -2.924601     7.198611
H    -3.455133    -3.165739     6.280841
H    -0.642495    -3.378011    -6.710832
O    -0.010070    -2.648379    -6.717874
H    -0.490487    -1.871127    -6.378487
H     0.620494     0.459900     8.763323
O     0.626575    -0.255918     8.123801
H    -0.296702    -0.541454     8.035395
H    -5.813105     7.370790    -4.260061
O    -6.316670     6.752635    -4.821267
H    -6.606804     6.023248    -4.229704
H    -4.254577     9.102815    -3.271195
O    -4.792598     8.308247    -3.164894
H    -4.386861     7.828517    -2.424675
H    -9.694287     5.810470    -4.659542
O    -10.230142     5.007489    -4.495880
H    -11.109616     5.210338    -4.816564
H     2.768713     6.506323     6.147925
O     1.808749     6.605475     6.244141
H     1.462722     5.693042     6.142154
H     4.820183     8.524731     0.092849
O     5.136082     8.525793     1.014308
H     5.540387     7.660538     1.146925
H     4.122534    -7.453665    -4.313953
O     3.364152    -7.735284    -4.857312
H     3.080732    -8.575651    -4.481679
H     0.386450     8.654893     4.235076
O     1.062876     8.008170     4.009028
H     1.286448     7.515750     4.824726
H     5.245325     4.163561    -3.143056
O     6.206597     4.130755    -3.088568
H     6.412518     3.549869    -2.339524
H    -2.602985    -1.537367     7.581282
O    -2.090537    -0.745361     7.801027
H    -2.715095    -0.116853     8.173556
H    -9.005415     7.949134    -4.161329
O    -8.942519     7.363351    -4.917208
H    -7.985667     7.196514    -5.050537
H     3.316973    -8.910622     1.933300
O     2.622156    -8.412454     1.470366
H     3.012585    -7.523682     1.481402
H     3.596704     8.155142     1.836536
O     2.804701     7.593638     1.948307
H     2.357430     7.831905     2.773144
N     4.936094    -8.817315     3.203028
H     5.633167    -8.352766     2.722366
H     4.661460    -8.193694     3.884188
