27

H    -4.007551     5.735055    -2.433299
O    -4.340887     4.938210    -2.851790
H    -4.139193     4.963805    -3.822848
H    -0.357610     6.879111    -2.260210
O    -1.112136     7.287407    -2.769189
H    -1.886233     7.139536    -2.186710
H    -0.632063     4.504477    -4.045066
O    -1.434199     5.025249    -4.260472
H    -1.295378     5.875919    -3.806245
H    -5.091401     5.594862    -5.612692
O    -4.505001     4.827038    -5.519846
H    -3.715372     4.971222    -6.098041
H    -2.317194     6.245956    -6.940001
O    -2.213832     5.309798    -6.737627
H    -1.797077     5.283019    -5.828709
H    -1.936048     10.384976    -2.722582
O    -2.815339     10.611349    -3.076927
H    -2.628938     11.004712    -3.933996
H    -5.986107     7.302398    -4.242878
O    -6.450035     6.670634    -4.812556
H    -6.723585     5.928668    -4.206228
H    -3.941824     9.152941    -3.343050
O    -4.407022     8.297488    -3.448899
H    -4.110134     7.803044    -2.666301
N    -3.502400     7.906842    -6.211506
H    -3.703047     7.940645    -5.259153
H    -4.298830     8.242947    -6.632790
