18
Coordinates from ORCA-job grain_mol_opt.QMRegion
  H   -3.49675190982551      6.36745100522114     -0.51520795701275
  O   -3.29275639220368      7.04172752594075     -1.21663985682742
  H   -3.15530019830640      7.90200152032623     -0.75556457743020
  H   -0.62827195019547      8.76675264469108     -2.24900791908535
  O   -0.48333256864402      9.61732361595163     -1.76822531806747
  H   0.29627788159803      9.44680148947899     -1.20715454302508
  H   -1.85245880482288      9.62625839939542     -0.68092411445922
  O   -2.71182153106025      9.46266840278207     -0.23274417402452
  H   -3.30967131047308     10.19305546770928     -0.48452022075850
  H   -1.70116873288837     10.42181313390491     -3.05645651916523
  O   -2.51630550874028     10.50743097702274     -3.58064343824235
  H   -2.23911222044425     10.94264132107876     -4.39179012287293
  H   -3.99600273893113      8.70160668576004     -3.61846087432889
  O   -4.77587302722507      8.29243950914251     -3.22960189459237
  H   -4.43761222576629      7.81757764902589     -2.44666919347945
  O   -4.29020278965791     11.35003562304235     -1.49744125502030
  H   -4.19499514259580     12.28726016376444     -1.30790209678733
  H   -3.82125159453056     11.21199141070609     -2.34060719271043
