603

H     0.216861     3.024355    -0.669878
O     0.738693     2.355900    -1.163438
H     1.677719     2.481736    -0.889617
H    -0.071683    -1.317461     3.154017
O     0.322112    -0.616873     2.611272
H    -0.154813     0.196772     2.845195
H    -2.384194     2.409800    -0.530347
O    -2.174349     1.938178     0.293273
H    -2.193430     0.990443     0.067298
H    -4.654109     0.548497     2.184159
O    -4.973115    -0.384091     2.196197
H    -4.469601    -0.862219     1.529127
H     0.071550    -0.316944     0.956384
O    -0.125207    -0.078176     0.029892
H     0.216809     0.817431    -0.089828
H    -0.156276    -3.587882     3.778591
O    -0.433176    -2.757373     4.199713
H     0.212745    -2.589814     4.902410
H    -4.872922     2.533476     1.334461
O    -4.234297     2.122493     1.949209
H    -3.391718     2.102761     1.436359
H    -3.229303     3.901567    -2.204852
O    -2.492447     3.303602    -1.973730
H    -2.135020     3.014769    -2.833657
H    -0.125332    -3.812023     0.503805
O     0.216052    -2.995575     0.922665
H    -0.570532    -2.507991     1.234522
H    -2.374475    -1.542816     2.470973
O    -2.185715    -2.008033     1.629673
H    -2.442357    -1.419713     0.900514
H     2.078957    -1.453929    -1.116666
O     2.309102    -1.707506    -0.198992
H     1.518948    -2.134694     0.183360
H    -1.380090     1.818635     1.917352
O    -1.471944     1.420648     2.793204
H    -1.456708     2.132014     3.459047
H     0.211864    -2.708912    -1.568547
O    -0.542250    -2.095295    -1.622682
H    -0.361537    -1.370346    -0.987718
H    -3.434917    -2.923811    -0.392257
O    -2.718238    -3.417027    -0.812641
H    -2.006586    -2.787799    -1.030075
H     2.779262     0.111859     2.939882
O     2.877252    -0.071404     3.901545
H     2.970425     0.820480     4.307282
H    -3.505853     6.382294    -0.533679
O    -3.264247     7.045301    -1.232330
H    -3.122377     7.889696    -0.760957
H     3.910882     0.565418     1.193561
O     2.959365     0.387526     1.308448
H     2.720655    -0.364261     0.728535
H    -5.770014     0.851173    -1.603139
O    -4.858925     1.176314    -1.475569
H    -4.968624     2.004283    -0.963117
H    -1.193410     5.390096     2.221981
O    -1.818726     4.644576     2.102856
H    -1.899535     4.224394     2.964449
H     3.507729     2.745225     0.435066
O     3.260672     2.707098    -0.504256
H     3.590898     1.864241    -0.857104
H     1.490228    -4.704717    -2.250692
O     1.556145    -3.928157    -1.676712
H     2.352253    -3.468724    -2.026845
H    -0.912221    -0.087253    -2.544715
O    -0.276639     0.564557    -2.867425
H    -0.015304     1.144957    -2.129541
H     1.696901    -4.696393    -0.179332
O     1.801589    -5.334349     0.562853
H     1.336789    -6.144258     0.265481
H    -1.224091    -3.266501    -2.880015
O    -1.051742    -3.949427    -3.541476
H    -0.927494    -4.797276    -3.073528
H    -2.767494     3.302896     4.710980
O    -1.786020     3.299550     4.677799
H    -1.494965     2.894831     5.513366
H     0.979666     5.018996     4.088418
O     0.034573     5.255523     4.137311
H    -0.441138     4.454066     4.394700
H    -1.732615    -4.653207    -0.373626
O    -0.968846    -5.195825    -0.088598
H    -1.318342    -5.882815     0.488356
H    -3.894440     5.837830    -2.590095
O    -4.246614     5.004574    -2.920264
H    -4.092104     4.970331    -3.888667
H    -2.432060    -3.692968     1.934603
O    -2.452808    -4.597375     2.309662
H    -1.513658    -4.837971     2.450267
H    -4.692426    -2.972303    -2.900695
O    -3.840302    -3.206432    -3.306728
H    -3.511418    -4.001510    -2.842423
H     0.348265     1.363680     4.620767
O     0.855525     2.123902     4.288581
H     0.905287     2.780786     4.997197
H    -4.657974    -5.164199    -1.575513
O    -5.359223    -4.809656    -1.001708
H    -5.147493    -5.165795    -0.117911
H     2.322083    -6.489450    -4.041402
O     1.985199    -6.160906    -3.187697
H     2.417988    -6.736524    -2.524917
H     0.469540    -3.382342    -4.005027
O     1.273294    -3.016417    -4.427003
H     0.955363    -2.643426    -5.275463
H     1.966139    -1.768154     2.985305
O     2.119394    -2.699048     2.766973
H     1.433482    -2.910504     2.099296
H    -3.009159    -1.805202    -3.209207
O    -2.585198    -0.919624    -3.142579
H    -3.238975    -0.272342    -3.462343
H    -3.172202     4.974451     1.087987
O    -3.951986     5.351356     0.633543
H    -4.366826     5.908685     1.340217
H     0.887663     2.241261     2.598750
O     0.990936     2.240438     1.627720
H     1.714628     1.613419     1.462513
H     0.210320     5.649193    -0.748454
O     0.736336     6.311004    -1.253486
H     0.875284     7.109926    -0.697128
H     0.364531     7.023105     2.605745
O     0.007580     6.649559     1.783290
H     0.665994     5.972618     1.524243
H    -2.473590     0.210193     3.344333
O    -2.697254    -0.603750     3.848327
H    -1.937055    -0.645948     4.470197
H    -0.888124     0.541697     6.030091
O    -0.614082     0.023980     5.254564
H     0.097209    -0.582461     5.540917
H     0.705148    -5.005348     1.979014
O     0.162213    -5.114331     2.783148
H     0.304536    -6.035654     3.054240
H    -2.129760    -8.090699     0.441647
O    -1.806714    -7.604235     1.227534
H    -2.592571    -7.291944     1.683611
H    -0.354630     6.860319    -2.314354
O    -1.099528     7.283811    -2.811664
H    -1.890394     7.157685    -2.249068
H    -1.096808     4.304411     0.582181
O    -0.722599     4.367509    -0.313147
H    -1.428692     4.126263    -0.946902
H    -4.397163     2.746512     3.512414
O    -4.394796     2.915989     4.477179
H    -4.481115     2.032663     4.885282
H     2.021434    -3.599328     4.245405
O     1.955780    -4.072075     5.098171
H     2.464379    -3.537740     5.729547
H     4.688063    -3.213893     0.842015
O     4.528068    -3.136506    -0.124364
H     3.670380    -2.657251    -0.207651
H    -2.715817    -0.747120    -1.349776
O    -3.042655    -0.476760    -0.475169
H    -3.842341     0.050304    -0.681982
H    -1.608040    -0.758337    -4.628830
O    -1.100394    -0.542298    -5.432204
H    -0.389036     0.051889    -5.146015
H     1.800957    -1.722034    -3.373881
O     1.894314    -0.976150    -2.749694
H     1.118364    -0.397308    -2.880895
H     3.662311    -3.141355     2.553087
O     4.620894    -3.372027     2.480430
H     4.673648    -4.332502     2.605794
H     3.418167    -6.140405     3.121932
O     3.774711    -5.939055     2.222220
H     3.038225    -5.591344     1.679295
H    -3.329852     1.617283    -4.173388
O    -4.176075     1.148547    -3.983758
H    -4.393796     1.293253    -3.027070
H    -5.065811     4.152778     0.072518
O    -5.505905     3.287716    -0.031023
H    -6.435950     3.408794    -0.313762
H     6.739841    -1.202608    -1.356101
O     5.967271    -1.052237    -0.804778
H     5.546801    -1.919574    -0.608839
H     4.595570    -3.184159    -2.467846
O     3.728068    -3.010411    -2.883703
H     3.730481    -3.628151    -3.640760
H     4.434603    -2.318280     5.625493
O     4.089880    -2.783688     6.417909
H     4.422918    -3.689412     6.335492
H    -0.734158     6.326435     5.086725
O    -1.328851     6.903575     5.625104
H    -1.341230     7.781059     5.184570
H     4.706805    -0.152361    -1.460168
O     3.940148     0.391979    -1.721533
H     3.247178    -0.206895    -2.053700
H    -0.722321     4.522895    -4.028265
O    -1.503773     5.068082    -4.235381
H    -1.350160     5.934164    -3.813064
H     0.675874     3.197850    -2.650190
O     0.684473     3.576301    -3.557814
H     0.730592     2.813694    -4.144613
H    -5.389115    -5.189752     1.789662
O    -4.693661    -5.785608     1.433981
H    -3.852261    -5.372138     1.705583
H     7.886993    -1.711782    -4.027776
O     7.628821    -1.399167    -3.127985
H     7.144702    -0.553632    -3.283952
H     3.699202    -5.082292    -5.290240
O     4.462125    -4.711135    -4.808232
H     4.844932    -5.423763    -4.263349
H    -3.779263     0.014584     4.937283
O    -4.378957     0.479634     5.570149
H    -5.040927    -0.177254     5.860990
H     3.458137    -5.957399    -0.520821
O     4.331570    -5.711872    -0.837891
H     4.410163    -4.749916    -0.693230
H     5.009652    -0.350348    -4.154553
O     4.471975    -1.059567    -4.545237
H     4.144857    -1.643350    -3.828288
H    -1.159594     1.572246    -3.931394
O    -1.808085     2.195688    -4.315795
H    -1.449863     2.526693    -5.162211
H     4.878611    -6.338420    -2.316228
O     5.210807    -6.663248    -3.182128
H     6.027761    -7.146128    -2.995818
H     8.736951    -5.116703    -2.916177
O     8.044329    -5.533552    -2.358653
H     8.076963    -6.490812    -2.461860
H     2.355204     4.704421     0.459873
O     1.779241     4.689596     1.233607
H     1.417818     3.769919     1.311022
H    -4.416293    -2.635764     4.230607
O    -5.309345    -2.293656     4.028427
H    -5.170412    -1.512394     3.453661
H    -5.846996    -3.190029     1.315321
O    -6.311395    -3.746635     1.982867
H    -6.122318    -3.312701     2.834014
H     1.698927     3.450110     6.871174
O     1.078197     3.969335     6.338038
H     0.294664     4.121860     6.909308
H     5.001579    -2.193007     3.620143
O     5.023282    -1.475299     4.284977
H     4.212987    -0.917233     4.128519
H     2.382116    -5.595223     4.837439
O     2.760246    -6.479520     4.576593
H     2.014026    -7.059205     4.401450
H     2.256673    -4.520950    -6.790477
O     2.085766    -5.009774    -5.975465
H     1.822747    -4.318695    -5.319364
H     6.437608    -4.125498    -0.501483
O     7.189350    -4.530992    -0.037969
H     7.696308    -4.953956    -0.758917
H    -1.711205     4.478064     7.709877
O    -0.811738     4.574214     8.094671
H    -0.629585     5.532866     8.121535
H    -5.095484     5.705330    -5.588221
O    -4.489236     4.940747    -5.608275
H    -3.731709     5.153651    -6.174484
H     3.286222    -2.533072    -8.434389
O     3.196722    -3.066003    -7.633433
H     4.073370    -3.044540    -7.204394
H    -0.631908     8.824208    -2.265592
O    -0.507154     9.651567    -1.745109
H     0.255457     9.475985    -1.170025
H     2.069268    -0.930587     5.215865
O     1.494377    -1.455151     5.802295
H     1.589252    -1.111696     6.700089
H     5.210376    -2.037589    -5.689289
O     5.554601    -2.804229    -6.211950
H     5.279112    -3.594033    -5.695142
H     5.687961    -5.241043     4.686919
O     5.165363    -5.155448     5.513381
H     4.442783    -5.786106     5.427040
H    -3.967545     1.141224     7.010915
O    -3.774442     1.616353     7.854921
H    -4.649934     2.003239     8.116102
H    -1.821960     9.613473    -0.732271
O    -2.682019     9.488635    -0.256806
H    -3.292320     10.118132    -0.644539
H    -5.929056     4.700112    -2.931916
O    -6.837825     4.583619    -3.276511
H    -6.748815     3.881706    -3.954343
H     0.085244    -7.070557    -1.146813
O     0.548167    -7.508115    -0.399270
H    -0.131753    -7.702346     0.248984
H    -7.620766     3.804852    -1.968619
O    -7.883136     3.217876    -1.228900
H    -7.742752     2.309102    -1.569497
H     3.975105    -0.916470     6.991724
O     3.985944     0.047720     6.982882
H     4.799691     0.335520     6.552633
H     2.278502     5.784046    -1.168812
O     3.214385     5.491224    -1.054038
H     3.390647     4.951100    -1.848286
H     6.543275    -5.953441     0.672339
O     6.172712    -6.689447     1.205207
H     5.268722    -6.410539     1.431817
H    -3.853822     4.723329     7.788758
O    -3.287697     4.260247     7.129367
H    -3.483441     3.317082     7.238663
H     5.750571    -7.966961     0.135913
O     5.461209    -8.652858    -0.502223
H     4.633106    -8.324881    -0.896617
H    -0.549199     2.027786     7.699687
O    -1.182208     1.966869     6.964075
H    -2.051104     1.825895     7.360075
H    -6.376996    -0.114045     1.064208
O    -6.696753    -0.195393     0.151009
H    -7.616034    -0.464474     0.167939
H    -5.372025    -3.057231    -0.589146
O    -5.118476    -2.355931     0.037196
H    -5.686810    -1.581781    -0.150116
H     4.334165     5.559900     0.329535
O     4.671541     5.670488     1.233170
H     3.970481     6.166467     1.691034
H    -9.040429    -1.727323    -2.254322
O    -8.492361    -1.527944    -1.467851
H    -8.621621    -2.265064    -0.831086
H    -5.507344     3.483407    -5.522057
O    -6.026483     2.773827    -5.107757
H    -5.361449     2.186098    -4.694755
H     3.187274    -0.896936    -5.650890
O     2.331013    -1.014603    -6.116742
H     2.415084    -1.863158    -6.591345
H     8.120527    -1.369928    -6.023093
O     8.126255    -2.234425    -5.567470
H     7.269385    -2.632105    -5.819056
H     7.632528     0.971707    -6.301991
O     7.441316     0.124168    -6.715858
H     6.459964     0.076965    -6.752521
H    -7.863138    -3.681360     0.927473
O    -8.540888    -3.571949     0.242860
H    -8.444402    -4.331089    -0.359502
H    -2.382008     8.734729     1.305241
O    -2.230482     8.145786     2.058012
H    -1.462945     7.590551     1.832827
H    -4.423820     6.435962     3.506539
O    -4.592217     6.863216     2.650305
H    -3.827868     7.447966     2.511876
H     3.417483     3.435382    -3.567229
O     3.265172     4.404605    -3.470207
H     2.300980     4.471301    -3.582210
H    -6.111701    -1.593952    -3.441749
O    -6.196038    -2.173496    -2.658141
H    -6.979752    -1.865211    -2.149745
H     6.475186     1.021899     4.747650
O     6.081152     1.561501     5.450099
H     6.273749     2.479524     5.160832
H     1.374537     1.718039    -5.816191
O     1.178305     1.122105    -5.062306
H     1.539856     0.258406    -5.332949
H    -2.479958     2.952097     10.490644
O    -2.269240     2.044551     10.216071
H    -2.867496     1.846745     9.483640
H     7.631967    -0.524982     3.089962
O     6.882520     0.051294     3.259489
H     6.189473    -0.548803     3.637764
H    -5.671654    -8.046487    -0.706767
O    -4.937119    -8.117490    -0.060232
H    -4.939220    -7.300769     0.462594
H    -5.169559    -0.107961    -4.713035
O    -5.788233    -0.818085    -4.953448
H    -6.625309    -0.374369    -5.151517
H     1.898789    -0.202115    -7.510262
O     1.698320     0.271103    -8.353665
H     2.274386    -0.134631    -9.007033
H     4.878632    -1.402237    -9.299384
O     3.953978    -1.171198    -9.581693
H     3.934176    -1.287618    -10.530920
H     7.562663    -2.600444     4.204743
O     7.709184    -2.635361     3.245201
H     7.214806    -3.425208     2.972292
H     6.712215    -5.920759     2.685698
O     6.775050    -5.246452     3.387627
H     7.650712    -5.333866     3.805572
H    -1.794295     8.942608     3.509431
O    -1.543663     9.245264     4.407712
H    -2.391547     9.380076     4.864453
H    -7.378189     1.584359    -5.247377
O    -7.954647     0.841356    -5.002802
H    -8.855586     1.242832    -4.927084
H     6.933003    -1.097936    -8.398798
O     6.349196    -1.817227    -8.663250
H     6.120346    -2.267515    -7.831831
H    -1.652624     6.245640    -7.013003
O    -2.053019     5.421414    -6.739929
H    -1.805038     5.288911    -5.776681
H     0.011594     3.295757     9.031366
O     0.206563     2.375341     9.285403
H    -0.592497     2.112371     9.791410
H     6.756970    -2.799988    -2.700821
O     6.224575    -3.543394    -2.360720
H     6.691512    -4.354964    -2.607845
H    -4.076772    -3.064603    -4.943514
O    -4.230189    -2.950590    -5.908255
H    -4.775872    -2.156437    -5.963951
H     1.988702     2.164405     8.472737
O     2.652461     2.276129     7.782426
H     3.073217     1.405120     7.666860
H    -6.913402    -5.189719    -1.398430
O    -7.829560    -5.456748    -1.644434
H    -7.961929    -5.053233    -2.527136
H    -3.811091     5.253508     5.705735
O    -3.775775     6.022372     5.115514
H    -2.841469     6.314371     5.210832
H    -7.877699     0.102749    -1.964349
O    -7.386100     0.825709    -2.376888
H    -7.614043     0.816047    -3.330285
H     5.843907     0.109991     0.418821
O     5.622714     0.830549     1.041403
H     6.133510     0.632845     1.853507
H    -6.203773     3.313011     7.402146
O    -6.077128     2.793815     8.230298
H    -6.679199     2.033959     8.141230
H     2.265421    -8.085058    -0.844792
O     2.942540    -8.073155    -1.540898
H     2.716348    -8.786230    -2.154714
H    -2.745675    -3.955266    -6.197323
O    -1.993471    -4.523491    -5.965792
H    -1.716762    -4.233491    -5.068275
H    -5.630295     3.764177     5.315621
O    -6.278425     4.161731     5.933095
H    -6.113274     5.105482     5.920232
H    -1.028119    -7.115191    -3.165541
O    -0.554335    -6.446956    -2.636553
H     0.353516    -6.379522    -3.017050
H     4.454044     1.994520     5.137138
O     3.513376     2.238598     5.016969
H     3.128592     2.252138     5.898746
H     4.126580     4.636077     6.311788
O     4.206490     5.367214     5.694703
H     3.639413     5.126135     4.923839
H     2.778123     3.601112     3.934213
O     2.604826     4.541945     3.766349
H     2.483399     4.638172     2.800133
H     9.401052     0.184755    -1.062213
O     8.593854     0.346672    -0.570310
H     8.417617    -0.472193    -0.077537
H    -2.086009     5.310034     10.660486
O    -2.809601     4.683045     10.890712
H    -3.028018     4.859731     11.805995
H     7.972102    -3.035823     0.332323
O     8.394709    -2.190235     0.588473
H     8.329117    -2.186199     1.550769
H     5.384266     3.641222     3.536704
O     6.041319     3.906667     4.201744
H     5.630471     4.624391     4.704972
H    -4.194481     5.018153     9.793338
O    -4.826478     5.171226     9.070801
H    -5.440551     4.424392     9.067686
H    -7.011663    -3.463906    -3.486169
O    -7.633556    -4.073761    -3.935269
H    -7.113388    -4.516546    -4.637701
H     0.044727     6.113027     10.782240
O    -0.818858     6.446745     10.534620
H    -0.701654     6.878189     9.669071
H     2.600690     1.486892    -4.098474
O     3.479194     1.838349    -3.858313
H     3.798972     1.321018    -3.089179
H    -6.969452    -0.213559     7.222280
O    -7.475908     0.566260     7.502841
H    -8.098890     0.751225     6.798971
H    -2.760022    -9.872048    -0.834836
O    -2.694571    -8.930393    -0.993714
H    -3.599703    -8.562022    -0.753151
H    -10.053396     3.099313    -4.893625
O    -10.172587     2.181865    -4.613750
H    -10.388610     2.265454    -3.664063
H    -2.070241    -3.029390     4.615621
O    -2.946372    -3.467116     4.684635
H    -2.941560    -4.084487     3.927928
H    -0.192127    -7.990489     2.483199
O     0.634568    -7.782167     2.931506
H     1.352386    -8.079498     2.344815
H     6.704184    -2.404236     6.397996
O     7.151967    -3.114505     5.933664
H     6.520444    -3.847956     5.894448
H    -5.273174    -2.002020     6.945383
O    -5.947823    -1.501502     6.461644
H    -5.932626    -1.878059     5.552238
H     0.851913     3.031088    -7.107025
O     1.768618     2.697878    -7.162483
H     1.753680     1.951181    -7.789323
H    -3.930461     8.755656     6.684177
O    -3.923882     8.754111     5.726844
H    -4.054497     7.827621     5.458113
H    -2.027229     10.316195    -2.724949
O    -2.928958     10.499800    -3.025042
H    -2.857036     11.133795    -3.737923
H     9.405992    -4.094513     4.048554
O     9.123803    -4.772283     4.670418
H     8.695873    -4.299229     5.395011
H    -0.741200    -5.996159    -5.841387
O    -0.039316    -6.564593    -5.507830
H     0.797444    -6.105172    -5.725162
H     1.851454     8.265447     0.677701
O     1.551793     8.589328    -0.197852
H     2.365346     8.623181    -0.730960
H     3.513631     2.921335    -6.654006
O     4.340326     2.628760    -6.244724
H     4.094744     2.354995    -5.336082
H     3.729786     7.038647    -1.256123
O     3.958852     7.975779    -1.460517
H     4.308261     7.899524    -2.364158
H     4.403860    -0.016891    -7.905911
O     4.780309     0.127412    -7.035905
H     4.601725     1.059819    -6.791935
H     6.042430     1.911499    -0.466264
O     6.606942     2.104800    -1.228365
H     7.431459     1.624503    -1.035788
H     6.670454    -8.452641    -1.607540
O     7.306876    -8.242801    -2.343854
H     7.672215    -9.077528    -2.632071
H    -5.307649    -5.776276    -5.409190
O    -5.923119    -5.102383    -5.723258
H    -5.369989    -4.335489    -5.959598
H     0.704359     7.160152     7.612752
O    -0.197052     7.190045     7.971953
H    -0.752853     7.206119     7.154874
H    -8.897084    -2.813790    -4.102101
O    -9.415334    -2.003987    -3.933956
H    -9.127733    -1.339530    -4.563827
H    -2.417758    -5.986144    -2.144585
O    -3.295093    -5.697251    -2.413122
H    -3.483056    -6.070853    -3.299207
H    -2.993192    -5.893479    -5.410550
O    -3.594663    -6.502023    -4.938738
H    -3.114908    -7.323735    -4.772865
H    -1.373501     3.730496    -6.975396
O    -0.835458     2.973309    -6.704217
H    -1.073414     2.189136    -7.255213
H    -0.194400     0.419785    -8.210881
O    -1.089813     0.657211    -7.927192
H    -1.266611     0.132926    -7.130100
H    -10.406074     4.075832    -2.728612
O    -10.475496     3.296987    -2.160949
H    -9.646354     3.268140    -1.651957
H     4.602159     4.060105     1.728903
O     4.386690     3.142787     2.007128
H     5.098958     2.561340     1.727067
H     6.496593     1.380079    -4.211864
O     6.191141     0.756160    -3.518403
H     6.224114     1.250984    -2.674353
H     9.634175    -2.254973    -0.923813
O     9.911171    -2.041492    -1.823649
H     9.112171    -1.699168    -2.266667
H     9.968370    -3.349044    -3.093995
O     9.699547    -3.999849    -3.769475
H     9.307735    -3.490457    -4.489510
H    -7.712700    -8.559741    -1.670922
O    -6.973470    -7.966906    -1.798243
H    -7.349050    -7.053073    -1.787744
H     4.184236     6.068693    -3.809327
O     4.843226     6.770150    -3.713703
H     5.681427     6.317332    -3.584755
H     0.085561    -8.171781    -5.217750
O     0.106801    -9.154823    -5.086579
H     0.256803    -9.518369    -5.959320
H    -2.346853    -8.671084    -2.719180
O    -2.112300    -8.406880    -3.628409
H    -1.467165    -9.026568    -3.987778
H     2.164474    -10.824491    -3.499528
O     2.120441    -9.869881    -3.474174
H     1.335959    -9.596763    -4.000543
H     6.852753     3.311833    -4.565417
O     6.907629     2.632928    -5.265947
H     6.115502     2.770267    -5.807384
H    -3.569538    -3.725681     7.721829
O    -3.681247    -2.937032     7.192471
H    -3.430639    -3.176111     6.273968
H    -0.637991    -3.360376    -6.722725
O    -0.005996    -2.630453    -6.729237
H    -0.485987    -1.854068    -6.387366
H     0.646477     0.446387     8.758732
O     0.652399    -0.266988     8.116616
H    -0.270317    -0.554403     8.029130
H    -5.809211     7.381075    -4.241742
O    -6.313240     6.763767    -4.803364
H    -6.602326     6.033103    -4.212897
H    -4.249768     9.111806    -3.251717
O    -4.787221     8.316773    -3.145957
H    -4.380124     7.835665    -2.407518
H    -9.690384     5.819896    -4.638317
O    -10.225621     5.016367    -4.475347
H    -11.105595     5.219380    -4.794569
H     2.789147     6.496726     6.152849
O     1.828971     6.598017     6.246117
H     1.482438     5.685106     6.146894
H     4.952808     8.362504    -0.011471
O     5.270078     8.380807     0.919845
H     5.489495     7.451315     1.096624
H     4.132223    -7.437892    -4.343361
O     3.373335    -7.720332    -4.885783
H     3.091295    -8.561084    -4.510515
H     0.404158     8.648674     4.245599
O     1.084054     8.005393     4.018888
H     1.305161     7.508808     4.833554
H     5.252006     4.175719    -3.148129
O     6.213162     4.142444    -3.096155
H     6.422071     3.561689    -2.347977
H    -2.577089    -1.550158     7.576372
O    -2.065280    -0.757876     7.796607
H    -2.689797    -0.131060     8.171958
H    -9.001432     7.958086    -4.136947
O    -8.939578     7.373508    -4.893835
H    -7.982921     7.207511    -5.029340
H     3.514305    -8.995157     1.088421
O     2.839175    -8.361907     1.337735
H     3.315776    -7.558021     1.618369
H     3.566959     8.232683     1.874391
O     2.798224     7.643893     1.963235
H     2.304846     7.878760     2.768689
N     7.313828     10.375197     1.231262
H     8.146762     9.907380     1.126012
H     6.643364     9.673536     1.151205
