603

H     0.204780     3.030235    -0.660660
O     0.727180     2.363043    -1.155588
H     1.666280     2.491067    -0.882427
H    -0.068942    -1.316076     3.160189
O     0.322092    -0.614285     2.617026
H    -0.155459     0.198421     2.852742
H    -2.394919     2.409245    -0.517658
O    -2.184099     1.937191     0.305439
H    -2.199977     0.989731     0.078344
H    -4.656498     0.540419     2.197832
O    -4.973747    -0.392748     2.209485
H    -4.470133    -0.869366     1.541399
H     0.069082    -0.312974     0.962785
O    -0.129810    -0.073869     0.036819
H     0.210501     0.822541    -0.082422
H    -0.147318    -3.587072     3.782591
O    -0.425732    -2.757646     4.204783
H     0.220773    -2.588997     4.906769
H    -4.881206     2.525618     1.350833
O    -4.240997     2.116227     1.965002
H    -3.399015     2.098249     1.450774
H    -3.246008     3.900350    -2.190163
O    -2.508178     3.303136    -1.960542
H    -2.150351     3.016668    -2.821005
H    -0.120448    -3.808318     0.507530
O     0.219669    -2.991426     0.926490
H    -0.567478    -2.505870     1.240053
H    -2.372130    -1.545980     2.479847
O    -2.183642    -2.010053     1.637900
H    -2.442292    -1.421550     0.909597
H     2.076122    -1.443615    -1.113852
O     2.308381    -1.697945    -0.196972
H     1.519645    -2.126830     0.186412
H    -1.385181     1.818053     1.927742
O    -1.477233     1.419568     2.803396
H    -1.459916     2.130413     3.469454
H     0.211439    -2.702469    -1.564150
O    -0.544112    -2.090528    -1.616844
H    -0.364206    -1.365673    -0.981421
H    -3.433061    -2.926898    -0.383212
O    -2.715943    -3.418098    -0.805200
H    -2.005954    -2.787045    -1.022833
H     2.778719     0.120531     2.943305
O     2.878159    -0.063894     3.904567
H     2.970312     0.827858     4.311318
H    -3.525538     6.379229    -0.516512
O    -3.287519     7.043570    -1.214913
H    -3.145516     7.887641    -0.742899
H     3.906567     0.578713     1.195893
O     2.955932     0.397238     1.311937
H     2.718388    -0.354245     0.731406
H    -5.778698     0.843685    -1.587637
O    -4.868213     1.170813    -1.461003
H    -4.979007     1.997929    -0.947427
H    -1.205883     5.390001     2.233316
O    -1.832200     4.643878     2.117098
H    -1.907290     4.222202     2.978343
H     3.497730     2.759096     0.440062
O     3.248767     2.718679    -0.498908
H     3.581219     1.876992    -0.851836
H     1.493545    -4.694811    -2.250028
O     1.558355    -3.918578    -1.675514
H     2.352891    -3.456902    -2.026093
H    -0.919780    -0.082385    -2.536297
O    -0.286166     0.571059    -2.859540
H    -0.025017     1.151632    -2.121543
H     1.702923    -4.687787    -0.178889
O     1.810355    -5.326274     0.562405
H     1.346878    -6.136934     0.265077
H    -1.224923    -3.262290    -2.874313
O    -1.051834    -3.944191    -3.536669
H    -0.925074    -4.792178    -3.069635
H    -2.774756     3.293675     4.724390
O    -1.793578     3.296648     4.691829
H    -1.498642     2.889554     5.525081
H     0.968519     5.024496     4.097259
O     0.022260     5.256419     4.153335
H    -0.448488     4.451361     4.407622
H    -1.726888    -4.652429    -0.368454
O    -0.961455    -5.193614    -0.085180
H    -1.308475    -5.881879     0.491760
H    -3.915594     5.835556    -2.572747
O    -4.266843     5.001981    -2.903176
H    -4.113189     4.968706    -3.871704
H    -2.425363    -3.695917     1.941519
O    -2.443568    -4.600795     2.315558
H    -1.503684    -4.839283     2.454901
H    -4.693931    -2.976128    -2.890010
O    -3.841887    -3.207949    -3.297525
H    -3.510482    -4.002630    -2.834328
H     0.347169     1.364309     4.629147
O     0.849825     2.127220     4.296190
H     0.900998     2.782389     5.006029
H    -4.652662    -5.169020    -1.566885
O    -5.353940    -4.816609    -0.991818
H    -5.140181    -5.173115    -0.108630
H     2.327081    -6.475916    -4.043529
O     1.990683    -6.148884    -3.189083
H     2.425594    -6.724144    -2.527364
H     0.467462    -3.373230    -4.001626
O     1.269765    -3.005199    -4.424603
H     0.949605    -2.632088    -5.272157
H     1.970150    -1.761662     2.988040
O     2.125067    -2.692041     2.768492
H     1.438617    -2.904348     2.101706
H    -3.013817    -1.804829    -3.199730
O    -2.591758    -0.918366    -3.133091
H    -3.247510    -0.272273    -3.451177
H    -3.186274     4.970848     1.103835
O    -3.968092     5.345590     0.650708
H    -4.383247     5.901697     1.357589
H     0.881913     2.245534     2.606300
O     0.981917     2.243427     1.635067
H     1.708639     1.620418     1.468620
H     0.193158     5.656147    -0.735530
O     0.714315     6.319188    -1.243272
H     0.857049     7.117855    -0.686117
H     0.349994     7.028250     2.616359
O    -0.014825     6.648502     1.799930
H     0.649348     5.979336     1.534709
H    -2.473811     0.206031     3.355081
O    -2.695397    -0.608509     3.859066
H    -1.934075    -0.649825     4.479679
H    -0.884714     0.539121     6.040140
O    -0.611707     0.023279     5.263131
H     0.101625    -0.582105     5.547115
H     0.714931    -5.000960     1.980515
O     0.173132    -5.112040     2.785090
H     0.318178    -6.033155     3.055382
H    -2.114959    -8.091552     0.444013
O    -1.791876    -7.605033     1.229824
H    -2.577752    -7.295145     1.687505
H    -0.377631     6.866452    -2.299895
O    -1.124454     7.287866    -2.797312
H    -1.913988     7.159847    -2.233542
H    -1.110383     4.305516     0.594850
O    -0.738024     4.369680    -0.301097
H    -1.444481     4.128161    -0.933968
H    -4.403333     2.737706     3.528204
O    -4.402268     2.906211     4.493447
H    -4.484247     2.021535     4.900045
H     2.031113    -3.593826     4.246393
O     1.967728    -4.067801     5.098620
H     2.475804    -3.532871     5.729996
H     4.692079    -3.199312     0.839766
O     4.530780    -3.121390    -0.126450
H     3.671765    -2.644076    -0.208014
H    -2.720282    -0.747762    -1.339717
O    -3.046894    -0.479225    -0.464505
H    -3.847812     0.046500    -0.669844
H    -1.617085    -0.753464    -4.620330
O    -1.110951    -0.535647    -5.424227
H    -0.400751     0.060079    -5.138352
H     1.795598    -1.710401    -3.370894
O     1.888342    -0.964762    -2.746393
H     1.110791    -0.387563    -2.875655
H     3.668642    -3.130444     2.552237
O     4.627609    -3.359107     2.477627
H     4.682611    -4.319493     2.602551
H     3.432199    -6.130715     3.118764
O     3.787048    -5.927944     2.218616
H     3.049018    -5.581217     1.677190
H    -3.343723     1.617669    -4.160462
O    -4.188697     1.146923    -3.970158
H    -4.405282     1.290286    -3.013006
H    -5.079871     4.144935     0.089601
O    -5.518545     3.279024    -0.012853
H    -6.448919     3.398135    -0.295383
H     6.736312    -1.182285    -1.359520
O     5.964296    -1.033701    -0.807081
H     5.545662    -1.901940    -0.610841
H     4.594896    -3.166787    -2.469826
O     3.726672    -2.994523    -2.884706
H     3.729364    -3.611847    -3.642068
H     4.442970    -2.308473     5.624411
O     4.100167    -2.775825     6.416464
H     4.435647    -3.680499     6.333092
H    -0.745421     6.325491     5.094268
O    -1.344168     6.901211     5.632052
H    -1.358817     7.780161     5.192110
H     4.700572    -0.136205    -1.459484
O     3.932861     0.406728    -1.720408
H     3.240245    -0.193288    -2.051196
H    -0.742742     4.529370    -4.016073
O    -1.525596     5.072992    -4.222101
H    -1.373362     5.938894    -3.798474
H     0.660678     3.206638    -2.640905
O     0.666956     3.585411    -3.548555
H     0.713938     2.823223    -4.135760
H    -5.379150    -5.199468     1.799299
O    -4.682833    -5.793238     1.441877
H    -3.841993    -5.378169     1.712863
H     7.880908    -1.685487    -4.033100
O     7.623868    -1.374012    -3.132604
H     7.136943    -0.529840    -3.286963
H     3.699282    -5.064440    -5.292807
O     4.462176    -4.691963    -4.811725
H     4.847193    -5.404155    -4.267801
H    -3.776336     0.006692     4.950144
O    -4.376714     0.469955     5.583922
H    -5.036115    -0.189378     5.875373
H     3.466715    -5.944358    -0.523633
O     4.339001    -5.696545    -0.842154
H     4.415646    -4.734580    -0.696413
H     4.999954    -0.330593    -4.154441
O     4.464029    -1.040928    -4.545325
H     4.138772    -1.625954    -3.828425
H    -1.172994     1.577614    -3.921201
O    -1.823597     2.199488    -4.304635
H    -1.467001     2.532437    -5.150882
H     4.885440    -6.320604    -2.321619
O     5.217476    -6.643679    -3.188270
H     6.035537    -7.125204    -3.003317
H     8.740302    -5.089723    -2.925742
O     8.049336    -5.508477    -2.367773
H     8.083893    -6.465613    -2.471720
H     2.341743     4.716384     0.470607
O     1.762902     4.696879     1.242104
H     1.406151     3.776105     1.318170
H    -4.409118    -2.645334     4.241367
O    -5.303189    -2.304814     4.040766
H    -5.166545    -1.522936     3.466350
H    -5.842272    -3.200242     1.327473
O    -6.304592    -3.758453     1.995111
H    -6.115300    -3.324949     2.846430
H     1.691610     3.451726     6.881026
O     1.064726     3.968792     6.352371
H     0.287157     4.120487     6.928469
H     5.007035    -2.179802     3.618270
O     5.028139    -1.462685     4.283621
H     4.216124    -0.906305     4.129093
H     2.397339    -5.589457     4.836101
O     2.777157    -6.472654     4.573644
H     2.032009    -7.053975     4.399392
H     2.253310    -4.505214    -6.790602
O     2.084888    -4.995141    -5.975759
H     1.820949    -4.305288    -5.318670
H     6.441854    -4.105671    -0.506728
O     7.195527    -4.509518    -0.044930
H     7.702146    -4.930981    -0.766939
H    -1.678403     4.515449     7.736881
O    -0.789130     4.607038     8.150053
H    -0.552633     5.551681     8.149136
H    -5.120674     5.702911    -5.569271
O    -4.512866     4.939627    -5.591084
H    -3.756371     5.154906    -6.157769
H     3.276223    -2.513487    -8.434067
O     3.189142    -3.047404    -7.633527
H     4.066237    -3.024313    -7.205568
H    -0.659169     8.829329    -2.248741
O    -0.535959     9.656552    -1.727832
H     0.227558     9.481293    -1.153026
H     2.073986    -0.925851     5.219410
O     1.500453    -1.452288     5.805478
H     1.595562    -1.109756     6.703742
H     5.202940    -2.016106    -5.690958
O     5.548584    -2.781343    -6.214803
H     5.275248    -3.572319    -5.698515
H     5.702050    -5.227601     4.681140
O     5.180571    -5.144005     5.508422
H     4.459212    -5.776143     5.422737
H    -3.964397     1.135651     7.022794
O    -3.772836     1.617917     7.863143
H    -4.650688     1.994096     8.127993
H    -1.848832     9.613923    -0.713354
O    -2.708502     9.486953    -0.237348
H    -3.320292     10.115557    -0.624150
H    -5.948263     4.693507    -2.912908
O    -6.857335     4.575097    -3.256168
H    -6.767637     3.874012    -3.934765
H     0.095524    -7.064822    -1.146347
O     0.560549    -7.502104    -0.399972
H    -0.117955    -7.698413     0.249149
H    -7.636575     3.793355    -1.948068
O    -7.896586     3.205176    -1.208440
H    -7.754685     2.296990    -1.550032
H     3.982480    -0.909024     6.992763
O     3.990580     0.055109     6.983635
H     4.803421     0.345564     6.553512
H     2.260143     5.795760    -1.159394
O     3.195693     5.502930    -1.046185
H     3.371810     4.964370    -1.840634
H     6.553380    -5.934459     0.665054
O     6.185175    -6.671873     1.197493
H     5.280969    -6.395071     1.425993
H    -3.904307     4.639327     7.790059
O    -3.291726     4.225517     7.141725
H    -3.482196     3.273951     7.229953
H     5.764521    -7.949333     0.127816
O     5.476033    -8.635219    -0.510757
H     4.646445    -8.308935    -0.903468
H    -0.545931     2.026342     7.710909
O    -1.180462     1.969089     6.974883
H    -2.046495     1.817485     7.372423
H    -6.379908    -0.125582     1.079789
O    -6.700703    -0.206296     0.166897
H    -7.619152    -0.478150     0.184553
H    -5.370078    -3.064786    -0.577466
O    -5.117526    -2.363294     0.049064
H    -5.687796    -1.590343    -0.137152
H     4.320975     5.574197     0.338053
O     4.655479     5.673344     1.243205
H     3.961376     6.182724     1.696940
H    -9.043928    -1.741746    -2.236629
O    -8.495309    -1.541799    -1.450697
H    -8.621939    -2.279876    -0.814489
H    -5.527403     3.479978    -5.504486
O    -6.044347     2.768814    -5.090157
H    -5.377353     2.182311    -4.678514
H     3.177213    -0.880225    -5.648766
O     2.320826    -0.999200    -6.114020
H     2.405898    -1.847346    -6.589124
H     8.110854    -1.341354    -6.028498
O     8.119434    -2.206135    -5.573569
H     7.263054    -2.605705    -5.824100
H     7.616916     0.999710    -6.304336
O     7.427524     0.152191    -6.718958
H     6.446158     0.102258    -6.754307
H    -7.857845    -3.696017     0.941764
O    -8.536685    -3.587428     0.258093
H    -8.439378    -4.345862    -0.345023
H    -2.403449     8.732502     1.323917
O    -2.250804     8.143439     2.076359
H    -1.481728     7.589846     1.850566
H    -4.436880     6.427583     3.525135
O    -4.608592     6.855921     2.670423
H    -3.845033     7.441480     2.529749
H     3.399863     3.450742    -3.562652
O     3.246499     4.419817    -3.466957
H     2.281575     4.484571    -3.574021
H    -6.117138    -1.600563    -3.427915
O    -6.199082    -2.180980    -2.644709
H    -6.982850    -1.875016    -2.135010
H     6.474620     1.037666     4.746529
O     6.080683     1.575192     5.450468
H     6.269273     2.494336     5.161769
H     1.358102     1.730819    -5.809427
O     1.164296     1.133677    -5.055992
H     1.527519     0.271069    -5.327748
H    -2.458013     2.893708     10.537038
O    -2.257420     1.998163     10.226046
H    -2.866373     1.828283     9.495695
H     7.632603    -0.506714     3.086309
O     6.882638     0.068592     3.256689
H     6.190909    -0.532534     3.635952
H    -5.658458    -8.054542    -0.699455
O    -4.922825    -8.124391    -0.054053
H    -4.926160    -7.308206     0.469615
H    -5.180161    -0.111283    -4.699146
O    -5.797490    -0.822634    -4.939449
H    -6.635878    -0.380700    -5.135929
H     1.884506    -0.186616    -7.506006
O     1.682058     0.286931    -8.348771
H     2.257929    -0.117203    -9.003275
H     4.864830    -1.378434    -9.300290
O     3.939420    -1.148847    -9.581136
H     3.918216    -1.265265    -10.530336
H     7.570036    -2.581934     4.198779
O     7.715561    -2.615898     3.238996
H     7.222342    -3.406547     2.966279
H     6.725273    -5.903143     2.678069
O     6.787641    -5.229048     3.380174
H     7.663876    -5.314922     3.797190
H    -1.812646     8.939818     3.525406
O    -1.566482     9.240953     4.425740
H    -2.416109     9.377285     4.877844
H    -7.393408     1.576388    -5.229007
O    -7.967791     0.831797    -4.984363
H    -8.869564     1.231046    -4.907071
H     6.919738    -1.070166    -8.402017
O     6.337336    -1.790597    -8.666367
H     6.110453    -2.242123    -7.835041
H    -1.681227     6.252569    -6.997951
O    -2.079078     5.426998    -6.725253
H    -1.829518     5.294308    -5.762234
H     0.024262     3.292881     9.052858
O     0.208142     2.365691     9.285412
H    -0.585137     2.102558     9.800907
H     6.755319    -2.777596    -2.705582
O     6.225068    -3.522442    -2.365575
H     6.693370    -4.332835    -2.613914
H    -4.080825    -3.065142    -4.933780
O    -4.235816    -2.950645    -5.898233
H    -4.783434    -2.157717    -5.952440
H     1.992475     2.168978     8.479556
O     2.652050     2.280140     7.785016
H     3.075324     1.410287     7.671127
H    -6.907746    -5.199985    -1.386773
O    -7.823623    -5.468928    -1.631778
H    -7.958151    -5.064964    -2.513933
H    -3.818457     5.242100     5.722448
O    -3.790210     6.015413     5.137905
H    -2.854951     6.307498     5.224723
H    -7.885087     0.090682    -1.946652
O    -7.395850     0.815266    -2.359152
H    -7.624883     0.805860    -3.312276
H     5.839726     0.126788     0.418067
O     5.618348     0.847120     1.040562
H     6.129612     0.650308     1.852547
H    -6.212424     3.295213     7.413051
O    -6.084217     2.781879     8.244115
H    -6.680387     2.016813     8.158849
H     2.278485    -8.074494    -0.848422
O     2.954603    -8.060483    -1.545490
H     2.729148    -8.773548    -2.159580
H    -2.749407    -3.951589    -6.190168
O    -1.995471    -4.518189    -5.960265
H    -1.718328    -4.228449    -5.062779
H    -5.636095     3.751727     5.332082
O    -6.280439     4.152536     5.952029
H    -6.127193     5.097740     5.921254
H    -1.020475    -7.110273    -3.163587
O    -0.547511    -6.441352    -2.634742
H     0.359660    -6.371494    -3.016346
H     4.451096     2.005311     5.139731
O     3.509400     2.245782     5.021596
H     3.126735     2.258405     5.904395
H     4.118759     4.643895     6.317967
O     4.197110     5.375302     5.700970
H     3.629344     5.134953     4.930282
H     2.770559     3.608401     3.939530
O     2.590715     4.548503     3.775256
H     2.472493     4.648609     2.808811
H     9.394499     0.210094    -1.068355
O     8.588784     0.372103    -0.574009
H     8.413530    -0.447558    -0.082023
H    -2.119376     5.202083     10.491181
O    -2.812080     4.620126     10.849106
H    -3.257867     5.186355     11.497639
H     7.975036    -3.012888     0.325614
O     8.396370    -2.166631     0.581802
H     8.331707    -2.163566     1.544216
H     5.376304     3.656275     3.538491
O     6.033386     3.920996     4.204117
H     5.621630     4.638218     4.707589
H    -4.240098     4.773334     9.776790
O    -4.931373     5.059924     9.139455
H    -5.534922     4.301211     9.059890
H    -7.012788    -3.472600    -3.472827
O    -7.633915    -4.083412    -3.921693
H    -7.113690    -4.524401    -4.625201
H    -0.698916     7.289878     10.987953
O    -1.360817     7.055175     10.330463
H    -0.930222     7.254627     9.474213
H     2.587171     1.501088    -4.093444
O     3.465719     1.853555    -3.854935
H     3.786879     1.336983    -3.085778
H    -6.962035    -0.230193     7.240335
O    -7.468316     0.550304     7.519482
H    -8.096721     0.729220     6.818930
H    -2.742784    -9.873217    -0.833165
O    -2.679774    -8.931298    -0.991470
H    -3.585385    -8.565210    -0.749186
H    -10.071727     3.084764    -4.870243
O    -10.188380     2.166764    -4.591118
H    -10.403365     2.248859    -3.641082
H    -2.061497    -3.033862     4.622665
O    -2.936721    -3.473398     4.692133
H    -2.931322    -4.090382     3.935166
H    -0.174551    -7.988830     2.483117
O     0.652300    -7.778840     2.930332
H     1.369994    -8.073996     2.342422
H     6.714389    -2.389681     6.393408
O     7.162935    -3.098528     5.927587
H     6.532950    -3.833342     5.889062
H    -5.263781    -2.015369     6.957885
O    -5.939645    -1.515107     6.475446
H    -5.925263    -1.891339     5.565870
H     0.830992     3.043775    -7.098264
O     1.748522     2.713016    -7.155847
H     1.734047     1.966522    -7.782927
H    -3.993414     8.769764     6.685866
O    -3.955264     8.749846     5.729775
H    -4.072063     7.818757     5.470767
H    -2.059337     10.318176    -2.705127
O    -2.961692     10.500252    -3.004490
H    -2.891672     11.135096    -3.716788
H     9.416409    -4.071440     4.039104
O     9.136969    -4.750671     4.660599
H     8.708567    -4.279582     5.386224
H    -0.739786    -5.988068    -5.838846
O    -0.036146    -6.555263    -5.506879
H     0.799274    -6.093690    -5.724716
H     1.829891     8.272555     0.688947
O     1.524915     8.596055    -0.187397
H     2.338677     8.634736    -0.719321
H     3.493561     2.939653    -6.648975
O     4.321635     2.648899    -6.241044
H     4.077406     2.373460    -5.332416
H     3.734788     7.125142    -1.209222
O     3.940143     8.061337    -1.421097
H     4.308573     8.006810    -2.314870
H     4.388640     0.004511    -7.904648
O     4.766628     0.149360    -7.035380
H     4.585365     1.080908    -6.790142
H     6.032391     1.931323    -0.466325
O     6.596706     2.126057    -1.228451
H     7.421460     1.645849    -1.036521
H     6.683136    -8.431287    -1.617231
O     7.318144    -8.219399    -2.354273
H     7.684402    -9.053190    -2.644041
H    -5.306114    -5.779254    -5.400239
O    -5.923527    -5.106506    -5.712947
H    -5.372472    -4.338119    -5.949280
H     0.709585     7.179082     7.618159
O    -0.201604     7.223762     7.949700
H    -0.739039     7.204645     7.116663
H    -8.900620    -2.826319    -4.085558
O    -9.420426    -2.017805    -3.916011
H    -9.135283    -1.352233    -4.545817
H    -2.411378    -5.985370    -2.139655
O    -3.289680    -5.698202    -2.406871
H    -3.477984    -6.071501    -3.292985
H    -2.991332    -5.891095    -5.404862
O    -3.590806    -6.501442    -4.932872
H    -3.108950    -7.322180    -4.768247
H    -1.395936     3.737998    -6.963043
O    -0.855472     2.981842    -6.693753
H    -1.092828     2.197572    -7.244808
H    -0.211076     0.430915    -8.203221
O    -1.106658     0.666010    -7.918208
H    -1.281146     0.140779    -7.121205
H    -10.423708     4.058439    -2.704090
O    -10.490544     3.279109    -2.136780
H    -9.660549     3.251744    -1.629112
H     4.584831     4.075287     1.734762
O     4.376096     3.154198     2.012377
H     5.091186     2.578114     1.729335
H     6.483184     1.403407    -4.212189
O     6.180643     0.778244    -3.518945
H     6.212780     1.272167    -2.674301
H     9.633619    -2.227345    -0.931993
O     9.909251    -2.011160    -1.831658
H     9.108371    -1.671740    -2.273581
H     9.967513    -3.318334    -3.103439
O     9.699538    -3.969129    -3.779196
H     9.305203    -3.460231    -4.498191
H    -7.699537    -8.571699    -1.661214
O    -6.961936    -7.976970    -1.789164
H    -7.339675    -7.064050    -1.777170
H     4.159120     6.086071    -3.802774
O     4.820160     6.787219    -3.716582
H     5.656645     6.333012    -3.581635
H     0.092728    -8.162404    -5.218374
O     0.116494    -9.145522    -5.088248
H     0.266002    -9.507846    -5.961579
H    -2.335042    -8.669564    -2.716930
O    -2.102257    -8.403976    -3.626234
H    -1.456260    -9.021928    -3.987013
H     2.180266    -10.811777    -3.505592
O     2.134193    -9.857278    -3.479523
H     1.348197    -9.585541    -4.004348
H     6.833034     3.336718    -4.564372
O     6.890273     2.659631    -5.266334
H     6.096255     2.793693    -5.806001
H    -3.555179    -3.735644     7.730608
O    -3.670175    -2.947338     7.201426
H    -3.419431    -3.185244     6.282692
H    -0.643781    -3.351352    -6.717852
O    -0.013524    -2.619910    -6.724754
H    -0.494868    -1.845022    -6.381311
H     0.654408     0.442459     8.765478
O     0.659503    -0.269019     8.121131
H    -0.262876    -0.557895     8.036395
H    -5.836460     7.375821    -4.220283
O    -6.339912     6.757923    -4.781828
H    -6.626421     6.026016    -4.191649
H    -4.279771     9.109188    -3.230935
O    -4.815506     8.313028    -3.124997
H    -4.405871     7.832015    -2.387813
H    -9.714709     5.805895    -4.613024
O    -10.247857     5.000998    -4.449972
H    -11.128719     5.202153    -4.767917
H     2.780469     6.501512     6.161405
O     1.820166     6.600053     6.256857
H     1.475264     5.686844     6.157855
H     4.806218     8.545940     0.105786
O     5.123738     8.544894     1.026719
H     5.532066     7.680886     1.155289
H     4.139021    -7.419925    -4.348627
O     3.380231    -7.703562    -4.890557
H     3.100400    -8.545259    -4.515729
H     0.386320     8.652350     4.262320
O     1.061626     8.006474     4.031438
H     1.291898     7.512712     4.844652
H     5.234048     4.195121    -3.144213
O     6.195546     4.165415    -3.092360
H     6.405364     3.582397    -2.345990
H    -2.568730    -1.558355     7.585082
O    -2.058733    -0.763613     7.800490
H    -2.680585    -0.141870     8.187675
H    -9.029997     7.945270    -4.110869
O    -8.967777     7.361461    -4.868321
H    -8.010898     7.197829    -5.005205
H     3.532355    -8.983479     1.082448
O     2.856036    -8.351944     1.332843
H     3.331053    -7.547281     1.614008
H     3.589420     8.167026     1.850543
O     2.798379     7.604150     1.963776
H     2.354562     7.838619     2.791370
N    -4.198263     7.044387     11.398078
H    -4.781013     6.772386     10.675591
H    -3.411873     7.387373     10.948669
