33

H    -4.597473     0.468571     2.167770
O    -4.958351    -0.445962     2.189862
H    -4.491688    -0.949463     1.508940
H    -4.840976     2.523618     1.315059
O    -4.202473     2.135410     1.948433
H    -3.357877     2.129290     1.431139
H    -4.321705     2.768703     3.548131
O    -4.349647     2.898931     4.520403
H    -4.449826     1.987603     4.883727
H    -3.691257    -0.031571     4.978347
O    -4.272332     0.445844     5.622635
H    -4.944082    -0.218537     5.888927
H    -3.893840     1.111780     7.099823
O    -3.783152     1.626883     7.932291
H    -4.673792     2.018292     8.123279
H    -6.412491    -0.216309     1.077494
O    -6.685590    -0.252250     0.143355
H    -7.569435    -0.628158     0.092610
H    -6.186489     3.401681     7.416974
O    -6.124085     2.845247     8.220753
H    -6.764167     2.119510     8.060097
H    -5.462799     3.874055     5.237615
O    -6.205240     4.246340     5.788544
H    -6.156161     5.200315     5.680310
H    -7.183709    -0.085641     7.151293
O    -7.640946     0.758057     7.281347
H    -7.766483     1.103079     6.376687
H    -5.175612    -2.049567     6.961579
O    -5.882178    -1.554366     6.508427
H    -5.885541    -1.945503     5.605838
N    -7.657415     2.087232     4.772415
H    -8.433541     2.196400     4.218265
H    -7.361474     2.991823     4.992845
