603

H     0.209125     3.024776    -0.683360
O     0.734330     2.361681    -1.181289
H     1.672829     2.492768    -0.907898
H    -0.048575    -1.345335     3.110913
O     0.342249    -0.640946     2.571472
H    -0.137706     0.169812     2.810409
H    -2.387055     2.392805    -0.543957
O    -2.173591     1.915229     0.275356
H    -2.188140     0.969473     0.041687
H    -4.642437     0.497264     2.158770
O    -4.954115    -0.438056     2.165376
H    -4.450744    -0.906855     1.491710
H     0.087923    -0.327613     0.919341
O    -0.109412    -0.086379    -0.006181
H     0.223019     0.813837    -0.120105
H    -0.113405    -3.621202     3.720628
O    -0.397400    -2.796781     4.147073
H     0.247707    -2.625614     4.849810
H    -4.874614     2.486816     1.324042
O    -4.232927     2.074291     1.934696
H    -3.390650     2.064923     1.421051
H    -3.244391     3.890888    -2.206851
O    -2.504391     3.294664    -1.981273
H    -2.145321     3.015925    -2.843715
H    -0.091961    -3.821812     0.438220
O     0.249451    -3.011761     0.868424
H    -0.538373    -2.525897     1.181653
H    -2.348189    -1.581515     2.427281
O    -2.155452    -2.040403     1.582995
H    -2.419889    -1.450047     0.857984
H     2.099541    -1.437411    -1.165438
O     2.332077    -1.699148    -0.250233
H     1.543659    -2.130917     0.129655
H    -1.376654     1.789322     1.897874
O    -1.464055     1.383385     2.770620
H    -1.453617     2.090350     3.441518
H     0.241629    -2.699474    -1.625384
O    -0.518855    -2.093511    -1.670339
H    -0.341312    -1.369385    -1.033366
H    -3.405703    -2.951002    -0.446086
O    -2.681610    -3.434191    -0.865827
H    -1.979290    -2.795109    -1.084515
H     2.795319     0.101670     2.902835
O     2.895498    -0.090323     3.862730
H     2.983467     0.799432     4.275765
H    -3.534130     6.357680    -0.517118
O    -3.298407     7.027039    -1.211648
H    -3.160052     7.868801    -0.734356
H     3.921449     0.576730     1.158105
O     2.972144     0.388230     1.274405
H     2.737376    -0.357900     0.686359
H    -5.764642     0.820077    -1.625045
O    -4.855388     1.149503    -1.495080
H    -4.969907     1.973425    -0.977057
H    -1.211049     5.360455     2.226068
O    -1.832556     4.611294     2.103620
H    -1.908647     4.185803     2.962902
H     3.503997     2.760311     0.416391
O     3.254899     2.723985    -0.522719
H     3.591098     1.886236    -0.881026
H     1.529639    -4.676427    -2.331030
O     1.592627    -3.911837    -1.739625
H     2.385789    -3.442994    -2.085299
H    -0.903611    -0.078812    -2.580026
O    -0.269625     0.577010    -2.897610
H    -0.012422     1.155117    -2.156260
H     1.736976    -4.660335    -0.298379
O     1.840541    -5.329176     0.422413
H     1.329067    -6.105633     0.134291
H    -1.196520    -3.262507    -2.936684
O    -1.016633    -3.940840    -3.600650
H    -0.889990    -4.790667    -3.138331
H    -2.769756     3.244581     4.703689
O    -1.788460     3.245132     4.668980
H    -1.493848     2.838358     5.502142
H     0.965398     4.990385     4.087606
O     0.018448     5.218116     4.142431
H    -0.450179     4.410955     4.393769
H    -1.686148    -4.658957    -0.453627
O    -0.932210    -5.210112    -0.156254
H    -1.306035    -5.870252     0.437388
H    -3.922000     5.825662    -2.576797
O    -4.269192     4.992668    -2.913052
H    -4.115526     4.966848    -3.881790
H    -2.394697    -3.724988     1.876198
O    -2.406887    -4.633031     2.244138
H    -1.467089    -4.865274     2.386602
H    -4.664740    -2.987116    -2.951651
O    -3.810508    -3.210557    -3.359263
H    -3.477936    -4.010999    -2.906549
H     0.357225     1.326285     4.595967
O     0.861722     2.089971     4.268580
H     0.907205     2.744135     4.980222
H    -4.613357    -5.190620    -1.644168
O    -5.314882    -4.842622    -1.066294
H    -5.102623    -5.206564    -0.186207
H     2.406182    -6.367276    -4.151744
O     2.061287    -6.081544    -3.289306
H     2.501021    -6.679286    -2.640750
H     0.497208    -3.357384    -4.066485
O     1.298222    -2.981161    -4.484508
H     0.977119    -2.605467    -5.330868
H     1.996918    -1.784465     2.936228
O     2.151825    -2.713596     2.709875
H     1.464850    -2.919037     2.041323
H    -2.989637    -1.806054    -3.253507
O    -2.570615    -0.918481    -3.179828
H    -3.228536    -0.272915    -3.494904
H    -3.188905     4.940648     1.093774
O    -3.972454     5.314580     0.643011
H    -4.389426     5.864886     1.354032
H     0.889714     2.221971     2.579299
O     0.989469     2.225063     1.607975
H     1.719529     1.607256     1.437925
H     0.187850     5.651044    -0.740630
O     0.706740     6.319018    -1.244158
H     0.845872     7.114915    -0.682012
H     0.337472     7.002152     2.619928
O    -0.023777     6.626715     1.799818
H     0.643043     5.961505     1.532046
H    -2.458304     0.163635     3.313392
O    -2.675144    -0.656414     3.810866
H    -1.914952    -0.696124     4.432929
H    -0.871668     0.486955     5.999498
O    -0.596099    -0.026471     5.221334
H     0.120009    -0.628396     5.503415
H     0.749942    -5.022457     1.899338
O     0.218067    -5.141764     2.708000
H     0.365014    -6.062808     2.973711
H    -2.276394    -7.947352     0.564694
O    -1.860856    -7.463182     1.304335
H    -2.590873    -7.041779     1.773715
H    -0.387946     6.868893    -2.297299
O    -1.136437     7.290061    -2.792227
H    -1.925479     7.155841    -2.229091
H    -1.109761     4.287324     0.580606
O    -0.737591     4.356915    -0.315171
H    -1.443937     4.118183    -0.949165
H    -4.397480     2.687129     3.502581
O    -4.395350     2.849108     4.468598
H    -4.475529     1.962410     4.870238
H     2.061568    -3.621934     4.182091
O     2.004120    -4.106434     5.028925
H     2.506449    -3.571779     5.665665
H     4.722906    -3.192816     0.777136
O     4.559991    -3.109100    -0.187568
H     3.699197    -2.634153    -0.266850
H    -2.701181    -0.759734    -1.387557
O    -3.027922    -0.500123    -0.509544
H    -3.830984     0.024327    -0.710600
H    -1.596979    -0.740397    -4.667452
O    -1.091273    -0.515450    -5.469502
H    -0.383598     0.081356    -5.179847
H     1.818896    -1.692077    -3.424366
O     1.908774    -0.952069    -2.792389
H     1.130337    -0.375083    -2.919004
H     3.694286    -3.148365     2.492353
O     4.654123    -3.373424     2.414781
H     4.721324    -4.331058     2.540206
H     3.459389    -6.157203     3.031975
O     3.804432    -5.968454     2.124126
H     3.075439    -5.590957     1.594001
H    -3.332878     1.620902    -4.192061
O    -4.175337     1.144745    -4.004548
H    -4.393096     1.281546    -3.046727
H    -5.078986     4.113626     0.074768
O    -5.513929     3.246540    -0.034865
H    -6.444994     3.364102    -0.315691
H     6.759091    -1.154945    -1.410492
O     5.987378    -1.013984    -0.855570
H     5.572264    -1.884997    -0.666423
H     4.625720    -3.143685    -2.532737
O     3.754928    -2.974352    -2.943366
H     3.760023    -3.585590    -3.705958
H     4.467244    -2.337796     5.568746
O     4.124833    -2.813241     6.356297
H     4.467289    -3.714691     6.268424
H    -0.754822     6.278569     5.098880
O    -1.353356     6.847159     5.642432
H    -1.370904     7.727967     5.208447
H     4.718465    -0.118675    -1.502484
O     3.947654     0.421970    -1.758431
H     3.258116    -0.178298    -2.095141
H    -0.743239     4.541925    -4.028802
O    -1.528430     5.083323    -4.231295
H    -1.380123     5.947146    -3.801897
H     0.665044     3.215575    -2.662014
O     0.670494     3.600052    -3.567101
H     0.720087     2.842031    -4.159441
H    -5.345044    -5.241978     1.722487
O    -4.644341    -5.831543     1.366375
H    -3.807775    -5.408987     1.635681
H     7.904591    -1.639638    -4.084984
O     7.645683    -1.334919    -3.182446
H     7.156336    -0.491196    -3.332097
H     3.736302    -5.022621    -5.367474
O     4.498778    -4.654934    -4.881174
H     4.883326    -5.372836    -4.344559
H    -3.761131    -0.052062     4.906445
O    -4.362151     0.404459     5.543767
H    -5.020190    -0.257995     5.830747
H     3.513301    -5.921709    -0.620311
O     4.395774    -5.675453    -0.910386
H     4.464453    -4.712423    -0.769097
H     5.018809    -0.294856    -4.197571
O     4.485824    -1.005241    -4.592419
H     4.162263    -1.595415    -3.879503
H    -1.161107     1.587772    -3.953901
O    -1.814443     2.209368    -4.332610
H    -1.459770     2.549472    -5.176895
H     4.930785    -6.295146    -2.403687
O     5.258563    -6.616279    -3.272415
H     6.080980    -7.093335    -3.093393
H     8.777615    -5.046302    -2.998469
O     8.088501    -5.471339    -2.442867
H     8.127211    -6.427671    -2.553928
H     2.340048     4.711883     0.458876
O     1.762125     4.684526     1.230819
H     1.407747     3.762607     1.300269
H    -4.382282    -2.699159     4.182203
O    -5.277526    -2.362089     3.982916
H    -5.144578    -1.575654     3.413566
H    -5.813295    -3.242067     1.263610
O    -6.272332    -3.806705     1.928124
H    -6.086298    -3.377137     2.782038
H     1.698303     3.403932     6.859762
O     1.072687     3.920683     6.330329
H     0.289903     4.066914     6.904160
H     5.032226    -2.192904     3.562546
O     5.049419    -1.482106     4.233730
H     4.235831    -0.926162     4.082314
H     2.439654    -5.618496     4.758436
O     2.816838    -6.501212     4.485694
H     2.070393    -7.083208     4.321360
H     2.292722    -4.458173    -6.863793
O     2.130701    -4.954422    -6.051464
H     1.858373    -4.272149    -5.390270
H     6.477738    -4.086169    -0.576916
O     7.230358    -4.492170    -0.115101
H     7.739781    -4.906540    -0.839673
H    -1.716311     4.404855     7.709736
O    -0.817198     4.502989     8.094635
H    -0.640178     5.462708     8.127497
H    -5.125956     5.707550    -5.574707
O    -4.514977     4.946909    -5.601414
H    -3.759497     5.168855    -6.166842
H     3.304396    -2.455579    -8.492591
O     3.219188    -2.993741    -7.694672
H     4.096529    -2.971607    -7.267365
H    -0.676726     8.830303    -2.234045
O    -0.556582     9.654766    -1.708235
H     0.206973     9.478696    -1.133757
H     2.093634    -0.961631     5.171829
O     1.525046    -1.497448     5.754462
H     1.615545    -1.158079     6.654449
H     5.228586    -1.970502    -5.745243
O     5.577546    -2.731228    -6.273116
H     5.306927    -3.526501    -5.762066
H     5.741253    -5.246186     4.607076
O     5.216463    -5.169283     5.433134
H     4.499704    -5.805768     5.344356
H    -3.953265     1.058492     6.989232
O    -3.761978     1.527766     7.836742
H    -4.639381     1.908089     8.101576
H    -1.870073     9.600499    -0.693943
O    -2.729475     9.466559    -0.219680
H    -3.343617     10.095709    -0.601781
H    -5.949672     4.677857    -2.924961
O    -6.858190     4.558021    -3.269156
H    -6.765721     3.861767    -3.952289
H     0.026948    -7.141147    -1.255518
O     0.409875    -7.596934    -0.452256
H    -0.285545    -7.491091     0.211634
H    -7.634568     3.764814    -1.966040
O    -7.892153     3.170541    -1.230468
H    -7.746643     2.265311    -1.578241
H     4.002909    -0.949332     6.945138
O     4.007130     0.014765     6.942914
H     4.818208     0.312122     6.514034
H     2.254199     5.801640    -1.163329
O     3.190873     5.511214    -1.052141
H     3.368964     4.979123    -1.850444
H     6.597730    -5.920541     0.585266
O     6.231257    -6.661814     1.114723
H     5.323715    -6.392804     1.335546
H    -3.860536     4.635750     7.792945
O    -3.292549     4.180447     7.129770
H    -3.482949     3.235560     7.232326
H     5.819205    -7.928414     0.026393
O     5.535434    -8.616846    -0.610784
H     4.728989    -8.277388    -1.041007
H    -0.539765     1.962235     7.680312
O    -1.173009     1.899673     6.944975
H    -2.040910     1.752979     7.341110
H    -6.363842    -0.167992     1.036823
O    -6.681857    -0.246933     0.122984
H    -7.599949    -0.520343     0.137189
H    -5.340814    -3.093990    -0.640208
O    -5.089648    -2.395808    -0.009246
H    -5.663515    -1.623902    -0.189661
H     4.315517     5.578532     0.332811
O     4.649457     5.672181     1.238776
H     3.953784     6.176876     1.695583
H    -9.019504    -1.773892    -2.291073
O    -8.471933    -1.576785    -1.503593
H    -8.595953    -2.319575    -0.872337
H    -5.523708     3.482837    -5.524452
O    -6.037752     2.766829    -5.114861
H    -5.368581     2.180337    -4.707017
H     3.198433    -0.841635    -5.696614
O     2.342075    -0.961482    -6.161306
H     2.430688    -1.805600    -6.643092
H     8.133858    -1.281573    -6.077721
O     8.145394    -2.148862    -5.627598
H     7.291064    -2.550621    -5.881719
H     7.630429     1.059583    -6.339187
O     7.444463     0.213499    -6.758248
H     6.463309     0.160216    -6.794920
H    -7.826779    -3.744477     0.874701
O    -8.505676    -3.633208     0.191736
H    -8.405408    -4.387029    -0.417066
H    -2.421480     8.703629     1.337499
O    -2.267385     8.109419     2.085443
H    -1.495280     7.561395     1.857099
H    -4.446721     6.376268     3.523884
O    -4.619372     6.808377     2.670969
H    -3.858668     7.398807     2.535533
H     3.403402     3.476497    -3.582266
O     3.246370     4.444221    -3.480082
H     2.281218     4.506169    -3.586832
H    -6.093525    -1.613779    -3.480445
O    -6.172485    -2.198897    -2.700438
H    -6.958376    -1.900080    -2.189742
H     6.487678     1.022541     4.711847
O     6.091476     1.552715     5.419975
H     6.274902     2.474996     5.137078
H     1.368713     1.763046    -5.839854
O     1.178006     1.160214    -5.090027
H     1.543762     0.300719    -5.368242
H    -2.471857     2.853295     10.480343
O    -2.256246     1.948995     10.198736
H    -2.854411     1.753308     9.465680
H     7.651995    -0.506621     3.041555
O     6.899301     0.063810     3.215973
H     6.210400    -0.542058     3.591601
H    -5.593724    -8.096415    -0.795276
O    -4.858359    -8.164756    -0.150291
H    -4.875523    -7.352195     0.378405
H    -5.162711    -0.112120    -4.742173
O    -5.777195    -0.824426    -4.986598
H    -6.617360    -0.384796    -5.180650
H     1.902715    -0.141751    -7.548966
O     1.698849     0.336779    -8.388417
H     2.275885    -0.061009    -9.045773
H     4.888239    -1.310030    -9.350793
O     3.961971    -1.081991    -9.629784
H     3.940334    -1.194164    -10.579506
H     7.597018    -2.589835     4.141298
O     7.741470    -2.617120     3.181167
H     7.252641    -3.408432     2.903315
H     6.767199    -5.903876     2.597664
O     6.822493    -5.236361     3.306958
H     7.700103    -5.317840     3.722831
H    -1.833592     8.898498     3.542602
O    -1.586096     9.196243     4.443331
H    -2.434926     9.322188     4.900592
H    -7.382382     1.570024    -5.261533
O    -7.953605     0.821613    -5.021290
H    -8.857114     1.216536    -4.941782
H     6.942089    -0.999997    -8.449663
O     6.362102    -1.720668    -8.718537
H     6.137359    -2.178991    -7.890460
H    -1.688692     6.280122    -6.999667
O    -2.082799     5.450994    -6.732386
H    -1.833144     5.313430    -5.770130
H     0.015445     3.222982     9.020260
O     0.215988     2.301619     9.266864
H    -0.580742     2.030547     9.772319
H     6.783241    -2.743772    -2.764351
O     6.256575    -3.492806    -2.427416
H     6.726967    -4.299618    -2.683791
H    -4.052286    -3.059248    -4.995306
O    -4.207630    -2.938746    -5.958881
H    -4.759138    -2.148246    -6.008130
H     1.998269     2.108979     8.451219
O     2.660920     2.228932     7.761230
H     3.086340     1.361328     7.638847
H    -6.870104    -5.228948    -1.463804
O    -7.785914    -5.497108    -1.708579
H    -7.921829    -5.090097    -2.589024
H    -3.823582     5.181481     5.714046
O    -3.794292     5.954513     5.129150
H    -2.861589     6.252267     5.225103
H    -7.868226     0.060920    -1.989205
O    -7.381421     0.790054    -2.396568
H    -7.610587     0.786303    -3.349764
H     5.856981     0.137293     0.376924
O     5.631338     0.851541     1.004786
H     6.144000     0.652615     1.815140
H    -6.201969     3.213613     7.399194
O    -6.070923     2.688709     8.223143
H    -6.668902     1.926245     8.129309
H     2.707128    -8.095594    -0.771661
O     3.094093    -7.983846    -1.656192
H     2.751674    -8.717824    -2.210538
H    -2.719248    -3.928709    -6.259248
O    -1.960573    -4.491222    -6.035486
H    -1.686159    -4.212164    -5.134450
H    -5.634480     3.683734     5.315068
O    -6.284133     4.072208     5.936678
H    -6.125340     5.017135     5.930233
H    -0.942976    -7.097663    -3.254043
O    -0.458758    -6.449926    -2.699425
H     0.429885    -6.343909    -3.128936
H     4.460192     1.978263     5.111645
O     3.517139     2.213098     4.994070
H     3.133929     2.222878     5.876549
H     4.115814     4.608302     6.306202
O     4.194046     5.343344     5.693638
H     3.626175     5.107444     4.921518
H     2.773364     3.582673     3.919880
O     2.592164     4.523452     3.762321
H     2.471126     4.630107     2.796903
H     9.410652     0.244349    -1.108186
O     8.604467     0.399460    -0.612356
H     8.432707    -0.424273    -0.126206
H    -2.092846     5.212221     10.666692
O    -2.811982     4.578717     10.893438
H    -3.030846     4.748135     11.809983
H     8.004346    -2.994427     0.265190
O     8.421340    -2.147931     0.527079
H     8.357526    -2.151132     1.489443
H     5.378769     3.643974     3.520547
O     6.034202     3.905121     4.189238
H     5.619879     4.618217     4.696713
H    -4.200473     4.913655     9.800202
O    -4.834434     5.067868     9.079640
H    -5.443895     4.317337     9.071969
H    -6.981226    -3.489060    -3.538271
O    -7.600271    -4.098675    -3.991233
H    -7.078140    -4.534567    -4.696566
H     0.032839     6.028657     10.791444
O    -0.833582     6.357732     10.547561
H    -0.720586     6.796331     9.684936
H     2.598439     1.527258    -4.126069
O     3.475714     1.881178    -3.884595
H     3.798405     1.361404    -3.118546
H    -6.946860    -0.316294     7.193959
O    -7.457514     0.458358     7.480914
H    -8.082639     0.644848     6.779350
H    -2.400010    -9.698938    -0.875950
O    -2.590357    -8.778499    -1.087549
H    -3.544170    -8.626693    -0.836962
H    -10.066554     3.065190    -4.893268
O    -10.179494     2.144952    -4.620049
H    -10.394977     2.220066    -3.669549
H    -2.034003    -3.081005     4.561602
O    -2.905689    -3.527146     4.629234
H    -2.900061    -4.136687     3.866666
H    -0.110296    -8.082103     2.573647
O     0.740731    -7.820867     2.942474
H     1.423598    -8.144611     2.330283
H     6.741907    -2.412925     6.336315
O     7.191686    -3.118131     5.866203
H     6.564364    -3.854843     5.824867
H    -5.239709    -2.091880     6.902331
O    -5.917940    -1.592264     6.422835
H    -5.901990    -1.962053     5.510776
H     0.836576     3.082047    -7.120448
O     1.755307     2.754816    -7.179456
H     1.743932     2.012750    -7.811855
H    -3.963976     8.674789     6.718331
O    -3.962122     8.680298     5.760984
H    -4.084671     7.754630     5.485778
H    -2.083144     10.316417    -2.680651
O    -2.986000     10.496675    -2.979596
H    -2.918091     11.136691    -3.687447
H     9.449759    -4.072900     3.971733
O     9.168894    -4.756544     4.587756
H     8.742716    -4.290414     5.317858
H    -0.700516    -5.950205    -5.935387
O     0.004039    -6.509245    -5.592784
H     0.839313    -6.052326    -5.816167
H     1.813420     8.264510     0.700860
O     1.507838     8.592053    -0.173728
H     2.321710     8.637864    -0.704835
H     3.499480     2.985441    -6.671807
O     4.328644     2.695310    -6.265593
H     4.085371     2.413417    -5.358787
H     3.723589     7.136908    -1.204869
O     3.925575     8.075120    -1.410674
H     4.293954     8.027961    -2.304865
H     4.406788     0.061316    -7.945649
O     4.783552     0.202389    -7.075197
H     4.598651     1.131838    -6.824732
H     6.041559     1.948511    -0.495178
O     6.605285     2.149411    -1.256019
H     7.432069     1.671691    -1.066828
H     6.742605    -8.405753    -1.712948
O     7.373414    -8.182171    -2.449930
H     7.732517    -9.012541    -2.758276
H    -5.264356    -5.778862    -5.479296
O    -5.884402    -5.105497    -5.785522
H    -5.336692    -4.334158    -6.019320
H     0.681119     7.102028     7.629363
O    -0.220152     7.122406     7.989951
H    -0.776618     7.142173     7.173225
H    -8.872102    -2.846435    -4.146406
O    -9.394652    -2.040787    -3.971463
H    -9.112515    -1.370483    -4.597577
H    -2.374521    -6.003243    -2.215672
O    -3.244822    -5.699867    -2.490321
H    -3.434170    -6.075571    -3.375942
H    -2.949900    -5.882585    -5.484967
O    -3.542975    -6.497748    -5.012334
H    -3.053942    -7.317259    -4.859439
H    -1.392946     3.766621    -6.980817
O    -0.849612     3.010843    -6.716170
H    -1.083753     2.229251    -7.272455
H    -0.195253     0.472052    -8.242520
O    -1.091435     0.702377    -7.955590
H    -1.264451     0.170677    -7.162611
H    -10.422581     4.023514    -2.720837
O    -10.486300     3.240186    -2.158702
H    -9.656367     3.213003    -1.650939
H     4.584303     4.072039     1.719898
O     4.380819     3.147555     1.990866
H     5.099090     2.577721     1.703566
H     6.494645     1.445094    -4.244699
O     6.194937     0.814413    -3.555024
H     6.225068     1.303734    -2.707679
H     9.659714    -2.193029    -0.987587
O     9.934407    -1.969557    -1.885658
H     9.132125    -1.631251    -2.325876
H     9.998280    -3.268922    -3.166506
O     9.731564    -3.917020    -3.845190
H     9.336118    -3.405743    -4.561897
H    -7.644445    -8.605403    -1.763239
O    -6.910613    -8.003675    -1.878976
H    -7.294663    -7.094348    -1.861840
H     4.152148     6.116352    -3.805247
O     4.810544     6.819361    -3.714366
H     5.648795     6.367591    -3.582348
H     0.184940    -8.092644    -5.472230
O     0.232140    -9.069546    -5.320622
H     0.496231    -9.435496    -6.169404
H    -2.316146    -8.717687    -2.959983
O    -2.008481    -8.366897    -3.816323
H    -1.472328    -9.027494    -4.271892
H     1.298273    -10.201983    -2.572890
O     1.930618    -9.886698    -3.245234
H     1.362141    -9.570092    -3.975576
H     6.837105     3.382221    -4.584303
O     6.896782     2.709282    -5.290035
H     6.102674     2.844095    -5.829415
H    -3.525015    -3.810567     7.664517
O    -3.641196    -3.018652     7.141085
H    -3.390966    -3.249379     6.220620
H    -0.612161    -3.321343    -6.781284
O     0.015921    -2.587623    -6.781976
H    -0.469503    -1.816660    -6.435812
H     0.668675     0.379327     8.724543
O     0.677153    -0.330803     8.078720
H    -0.244716    -0.620815     7.990270
H    -5.848323     7.368934    -4.215250
O    -6.349191     6.752568    -4.780801
H    -6.633024     6.015928    -4.195251
H    -4.298672     9.102035    -3.214415
O    -4.830954     8.302842    -3.114046
H    -4.419930     7.819063    -2.379434
H    -9.720371     5.786048    -4.618473
O    -10.250265     4.977950    -4.460744
H    -11.131888     5.177583    -4.777541
H     2.768599     6.464445     6.160741
O     1.808260     6.556139     6.260473
H     1.468040     5.642482     6.150688
H     4.789385     8.553403     0.119417
O     5.107527     8.547665     1.040093
H     5.518594     7.684209     1.163197
H     4.164553    -7.415833    -4.409769
O     3.395883    -7.699417    -4.939061
H     3.132959    -8.550674    -4.583201
H     0.366551     8.614933     4.274582
O     1.046397     7.974631     4.040626
H     1.275731     7.476398     4.851146
H     5.234457     4.225846    -3.158728
O     6.196069     4.199026    -3.107180
H     6.408098     3.612626    -2.364187
H    -2.545963    -1.627532     7.533505
O    -2.037605    -0.834544     7.758784
H    -2.664688    -0.213241     8.139137
H    -9.044240     7.924757    -4.102326
O    -8.979595     7.346214    -4.863610
H    -8.022070     7.187326    -5.001445
H     3.777055    -8.928486     1.126136
O     3.037049    -8.318947     1.213535
H     3.463015    -7.481316     1.520874
H     3.573348     8.159006     1.862728
O     2.785504     7.591059     1.971632
H     2.338952     7.818861     2.799801
N     0.128601    -10.239262    -1.076479
H     0.523545    -10.761398    -0.372201
H     0.258278    -9.294988    -0.807392
