21
Coordinates from ORCA-job grain_mol_opt.QMRegion
  H   5.69920123077937     -5.32701807814832      4.61921335312916
  O   5.12456175884855     -5.18393915955627      5.40209439184748
  H   4.38909163453603     -5.80324122695891      5.30942768195364
  H   6.45066191002091     -5.93140448123151      0.62556759381788
  O   6.11291819822798     -6.65764633094807      1.19712590688134
  H   5.20457837709968     -6.37695387846259      1.42330807029559
  H   7.27681954173491     -2.56304178759009      4.15660382591850
  O   7.74026682363929     -2.71828458187089      3.31152567407659
  H   7.42501673044244     -3.61507273186671      3.07360915661741
  H   6.77497680055912     -5.93914796537468      2.62687075589945
  O   6.98407010734639     -5.36835453610956      3.39865058690553
  H   7.81954957222235     -5.72767346095183      3.78321030030543
  H   6.41260577252544     -2.28285374328936      6.43715334415677
  O   7.00683805264869     -2.91763863899091      6.02124943090715
  H   6.50184019702445     -3.74574072574524      6.04124589697813
  H   9.23482109706124     -3.11725070193932      4.24334286605951
  O   9.86453382872215     -3.43524184288714      4.93061595568945
  H   9.39067736865134     -3.23204313798160      5.74641483198310
  O   9.35399614724735     -6.06585089598339      4.52138496681189
  H   10.01458268376174     -6.42103344274346      3.91995576560277
  H   9.65406449833733     -5.13992179864666      4.71297761058119
