603

H     0.208013     3.032685    -0.663213
O     0.729678     2.363325    -1.156185
H     1.669216     2.492840    -0.884744
H    -0.061054    -1.301975     3.173070
O     0.329890    -0.601364     2.628601
H    -0.148861     0.212426     2.858352
H    -2.390952     2.411979    -0.513944
O    -2.179842     1.941609     0.310127
H    -2.195231     0.993770     0.084842
H    -4.649676     0.550827     2.207931
O    -4.964690    -0.383320     2.225508
H    -4.464530    -0.861049     1.555588
H     0.076371    -0.305085     0.970728
O    -0.125592    -0.069122     0.044924
H     0.215117     0.826723    -0.078572
H    -0.137394    -3.569966     3.801129
O    -0.415442    -2.740369     4.223646
H     0.235931    -2.568838     4.920571
H    -4.875770     2.533331     1.356006
O    -4.235006     2.124314     1.970055
H    -3.393480     2.106415     1.454865
H    -3.245073     3.897151    -2.190554
O    -2.507424     3.300014    -1.960010
H    -2.150017     3.011821    -2.820044
H    -0.113935    -3.802439     0.526873
O     0.226137    -2.984245     0.943377
H    -0.560867    -2.497613     1.255128
H    -2.365289    -1.534087     2.493425
O    -2.176959    -2.000774     1.653567
H    -2.436426    -1.414993     0.923171
H     2.079988    -1.442166    -1.104788
O     2.313106    -1.693728    -0.187334
H     1.525019    -2.121752     0.198061
H    -1.379189     1.826722     1.931463
O    -1.469819     1.430654     2.808553
H    -1.450208     2.143850     3.472271
H     0.215053    -2.702855    -1.548852
O    -0.541158    -2.091704    -1.601732
H    -0.360196    -1.364303    -0.969537
H    -3.428372    -2.924027    -0.363013
O    -2.711414    -3.416938    -0.783191
H    -2.001846    -2.786641    -1.004606
H     2.788074     0.136064     2.947591
O     2.886371    -0.047423     3.909021
H     2.982225     0.845193     4.315416
H    -3.523328     6.381231    -0.524072
O    -3.286475     7.043018    -1.225338
H    -3.143791     7.888744    -0.756323
H     3.912773     0.588461     1.196849
O     2.962453     0.406155     1.314711
H     2.724866    -0.346670     0.736153
H    -5.776165     0.842231    -1.576197
O    -4.865546     1.169421    -1.450789
H    -4.975898     1.998491    -0.940151
H    -1.199591     5.401290     2.225301
O    -1.825053     4.653556     2.112217
H    -1.900274     4.237357     2.975767
H     3.502876     2.766764     0.434173
O     3.251503     2.722030    -0.504179
H     3.584609     1.879627    -0.854522
H     1.496643    -4.697077    -2.229843
O     1.561859    -3.919117    -1.657701
H     2.355915    -3.458319    -2.010718
H    -0.918309    -0.085707    -2.527366
O    -0.284984     0.566492    -2.853542
H    -0.022903     1.149851    -2.117973
H     1.708601    -4.683616    -0.158930
O     1.816309    -5.319387     0.584703
H     1.353349    -6.131365     0.290180
H    -1.222856    -3.267076    -2.855237
O    -1.050802    -3.951097    -3.515652
H    -0.922938    -4.797580    -3.046220
H    -2.760044     3.307924     4.735733
O    -1.778934     3.301400     4.701584
H    -1.479730     2.909989     5.538741
H     0.977018     5.042825     4.088241
O     0.029752     5.271280     4.140379
H    -0.436088     4.467162     4.405040
H    -1.721632    -4.649817    -0.344298
O    -0.955722    -5.189429    -0.059457
H    -1.301859    -5.876956     0.518877
H    -3.915787     5.830925    -2.577893
O    -4.266945     4.996269    -2.905875
H    -4.114131     4.960487    -3.874402
H    -2.417539    -3.686416     1.963441
O    -2.435434    -4.588804     2.343326
H    -1.495146    -4.827849     2.479721
H    -4.692133    -2.981912    -2.867656
O    -3.840461    -3.214772    -3.275310
H    -3.508326    -4.008066    -2.810310
H     0.361244     1.384587     4.630767
O     0.855352     2.148880     4.294264
H     0.917586     2.802119     5.006490
H    -4.648664    -5.170524    -1.537873
O    -5.349159    -4.816505    -0.962776
H    -5.134199    -5.170562    -0.078993
H     2.328178    -6.483536    -4.018715
O     1.992586    -6.154056    -3.164872
H     2.428666    -6.727058    -2.501952
H     0.467929    -3.381174    -3.984449
O     1.269662    -3.014294    -4.409388
H     0.948569    -2.643771    -5.257733
H     1.980944    -1.746952     2.997463
O     2.133398    -2.678769     2.782292
H     1.446907    -2.892732     2.116139
H    -3.012689    -1.810946    -3.182996
O    -2.590855    -0.924238    -3.119034
H    -3.246847    -0.279162    -3.438840
H    -3.181084     4.978387     1.099679
O    -3.964156     5.350468     0.646621
H    -4.377773     5.909593     1.352777
H     0.890168     2.260112     2.604441
O     0.987208     2.251553     1.633127
H     1.715617     1.630034     1.468553
H     0.196033     5.658635    -0.745500
O     0.715937     6.320000    -1.256536
H     0.859615     7.120493    -0.702004
H     0.354702     7.040749     2.602058
O    -0.009709     6.658581     1.786364
H     0.654788     5.988939     1.523577
H    -2.465230     0.221409     3.363385
O    -2.687771    -0.590497     3.872322
H    -1.925813    -0.630383     4.491065
H    -0.835776     0.551048     6.015026
O    -0.559990     0.038966     5.231721
H     0.154221    -0.578205     5.499021
H     0.722764    -4.990005     2.002918
O     0.181895    -5.098394     2.808585
H     0.327722    -6.018672     3.081518
H    -2.107696    -8.086289     0.479184
O    -1.784186    -7.596766     1.262998
H    -2.569846    -7.286494     1.720744
H    -0.377542     6.863670    -2.313059
O    -1.125243     7.282745    -2.811255
H    -1.913892     7.156909    -2.245745
H    -1.105177     4.312086     0.590274
O    -0.734478     4.372249    -0.306640
H    -1.442272     4.129649    -0.937421
H    -4.392941     2.755255     3.529610
O    -4.390119     2.923593     4.494830
H    -4.477777     2.040446     4.901130
H     2.042148    -3.576228     4.262668
O     1.977307    -4.045181     5.117569
H     2.492721    -3.511245     5.744268
H     4.698713    -3.191218     0.851174
O     4.535872    -3.116701    -0.115039
H     3.676935    -2.639412    -0.197031
H    -2.717137    -0.748173    -1.326582
O    -3.043150    -0.477513    -0.451732
H    -3.843867     0.048275    -0.658120
H    -1.617748    -0.763644    -4.608441
O    -1.112772    -0.548444    -5.413694
H    -0.402386     0.048560    -5.130827
H     1.796533    -1.716076    -3.360524
O     1.889534    -0.968798    -2.738052
H     1.112093    -0.391723    -2.868609
H     3.677304    -3.117657     2.564780
O     4.636124    -3.346199     2.489467
H     4.692012    -4.306088     2.617472
H     3.442066    -6.115700     3.141104
O     3.795573    -5.916022     2.239823
H     3.056901    -5.570948     1.698222
H    -3.344475     1.608320    -4.154075
O    -4.188972     1.137693    -3.961037
H    -4.404392     1.284500    -3.004214
H    -5.075570     4.148465     0.091423
O    -5.514387     3.282093    -0.008585
H    -6.445086     3.400667    -0.290052
H     6.739805    -1.180408    -1.356730
O     5.968130    -1.030616    -0.804158
H     5.550237    -1.898362    -0.604671
H     4.597219    -3.168982    -2.458200
O     3.728297    -2.998453    -2.872376
H     3.730405    -3.617923    -3.627981
H     4.453807    -2.287359     5.633408
O     4.109031    -2.754352     6.425129
H     4.449657    -3.657513     6.346371
H    -0.736414     6.345152     5.088669
O    -1.334003     6.920971     5.625978
H    -1.347377     7.797999     5.184309
H     4.703634    -0.135176    -1.457495
O     3.935339     0.406505    -1.719276
H     3.242589    -0.194741    -2.047344
H    -0.744064     4.521330    -4.021753
O    -1.527460     5.063862    -4.228490
H    -1.375076     5.931146    -3.807488
H     0.661447     3.203017    -2.644117
O     0.666264     3.578747    -3.553008
H     0.712936     2.814787    -4.137898
H    -5.370796    -5.191129     1.829376
O    -4.674424    -5.785674     1.473567
H    -3.833524    -5.369338     1.742350
H     7.881014    -1.691725    -4.030155
O     7.624883    -1.377663    -3.130332
H     7.137682    -0.533967    -3.286623
H     3.698650    -5.075758    -5.274171
O     4.461927    -4.701526    -4.795109
H     4.847913    -5.411885    -4.249477
H    -3.767845     0.024615     4.954045
O    -4.363385     0.487756     5.593896
H    -5.024932    -0.169000     5.888126
H     3.472115    -5.940924    -0.501995
O     4.343839    -5.693797    -0.822457
H     4.420557    -4.731359    -0.679699
H     4.999625    -0.337860    -4.152168
O     4.463365    -1.049617    -4.540098
H     4.139222    -1.632376    -3.820920
H    -1.173392     1.569741    -3.917333
O    -1.824920     2.189875    -4.301932
H    -1.469370     2.520682    -5.149474
H     4.888765    -6.322267    -2.300619
O     5.219644    -6.648113    -3.166660
H     6.038160    -7.128708    -2.981278
H     8.742534    -5.092304    -2.913303
O     8.052270    -5.509556    -2.353300
H     8.087082    -6.466993    -2.454245
H     2.346331     4.722641     0.459918
O     1.767695     4.705297     1.231558
H     1.411308     3.785068     1.310997
H    -4.398635    -2.628878     4.261246
O    -5.292907    -2.288163     4.062651
H    -5.157786    -1.509465     3.483196
H    -5.835365    -3.193228     1.351599
O    -6.296417    -3.749520     2.021917
H    -6.107047    -3.313035     2.871415
H     1.703888     3.472410     6.875270
O     1.084215     3.994079     6.340690
H     0.303670     4.142657     6.914836
H     5.016711    -2.162667     3.626254
O     5.037693    -1.444658     4.290439
H     4.225959    -0.887918     4.135137
H     2.407965    -5.568878     4.858875
O     2.788309    -6.452254     4.598201
H     2.043746    -7.035244     4.427130
H     2.250741    -4.521397    -6.771911
O     2.083221    -5.008871    -5.955401
H     1.820124    -4.316991    -5.300127
H     6.446909    -4.101327    -0.494692
O     7.200994    -4.503861    -0.032424
H     7.707028    -4.927254    -0.753705
H    -1.715803     4.517930     7.706235
O    -0.819659     4.616200     8.093538
H    -0.628660     5.573065     8.115467
H    -5.124189     5.688869    -5.573061
O    -4.516457     4.925473    -5.593571
H    -3.760519     5.139323    -6.161557
H     3.271059    -2.534562    -8.422792
O     3.185092    -3.066045    -7.620504
H     4.062720    -3.041315    -7.193688
H    -0.658889     8.826566    -2.268129
O    -0.535192     9.655542    -1.750323
H     0.228528     9.482091    -1.175157
H     2.085742    -0.906813     5.223959
O     1.509739    -1.423496     5.816376
H     1.613544    -1.068938     6.711095
H     5.201041    -2.028127    -5.683671
O     5.546065    -2.794955    -6.205615
H     5.273734    -3.584349    -5.686438
H     5.713921    -5.207394     4.697755
O     5.193049    -5.121267     5.525194
H     4.472252    -5.754446     5.442715
H    -4.012972     1.216040     6.927760
O    -3.810678     1.661901     7.791318
H    -4.687708     2.044645     8.070544
H    -1.847303     9.615776    -0.734012
O    -2.706768     9.489601    -0.257632
H    -3.318842     10.117625    -0.644833
H    -5.948200     4.687685    -2.912691
O    -6.857750     4.567649    -3.254240
H    -6.768675     3.864712    -3.930937
H     0.100509    -7.064057    -1.117102
O     0.566524    -7.498676    -0.369784
H    -0.111095    -7.693395     0.280697
H    -7.635092     3.790183    -1.942701
O    -7.894256     3.203902    -1.201226
H    -7.752355     2.294916    -1.540481
H     4.005610    -0.892803     6.994554
O     4.005107     0.070751     6.981603
H     4.816513     0.369583     6.555102
H     2.262023     5.797237    -1.172732
O     3.197773     5.504784    -1.060071
H     3.372942     4.963843    -1.852997
H     6.560301    -5.926499     0.682746
O     6.192825    -6.662432     1.217797
H     5.288947    -6.385035     1.446686
H    -3.852195     4.736617     7.801197
O    -3.291308     4.272923     7.137410
H    -3.477194     3.329597     7.252711
H     5.771253    -7.943245     0.152851
O     5.481980    -8.631238    -0.483122
H     4.651994    -8.306192    -0.875965
H    -0.484556     2.101414     7.685202
O    -1.143434     1.955828     6.975617
H    -2.002350     2.017581     7.409699
H    -6.375107    -0.118675     1.095895
O    -6.695435    -0.203654     0.183434
H    -7.614198    -0.474476     0.201679
H    -5.365131    -3.063587    -0.553806
O    -5.112596    -2.360271     0.070749
H    -5.682939    -1.587901    -0.117921
H     4.324412     5.581011     0.323129
O     4.660267     5.682762     1.227438
H     3.966770     6.193258     1.680948
H    -9.041541    -1.746162    -2.212765
O    -8.492172    -1.543800    -1.427922
H    -8.617945    -2.280064    -0.789538
H    -5.530377     3.466175    -5.500926
O    -6.046531     2.755868    -5.084061
H    -5.378796     2.171026    -4.671371
H     3.175169    -0.892560    -5.642521
O     2.318175    -1.013393    -6.106199
H     2.403057    -1.862862    -6.578958
H     8.108367    -1.353723    -6.026909
O     8.117737    -2.217147    -5.569407
H     7.261140    -2.617657    -5.817596
H     7.613571     0.986278    -6.309342
O     7.423824     0.137462    -6.721168
H     6.442430     0.087250    -6.755077
H    -7.851125    -3.691052     0.970004
O    -8.530936    -3.584486     0.287075
H    -8.434219    -4.344477    -0.314227
H    -2.399136     8.740611     1.306419
O    -2.247026     8.152666     2.059667
H    -1.476795     7.599849     1.836293
H    -4.429989     6.442627     3.517220
O    -4.602852     6.866674     2.660282
H    -3.840122     7.452927     2.517800
H     3.399261     3.444841    -3.570279
O     3.245831     4.414147    -3.477741
H     2.280755     4.478550    -3.583378
H    -6.116170    -1.608282    -3.407996
O    -6.197101    -2.186211    -2.622777
H    -6.980410    -1.878747    -2.113336
H     6.485708     1.059284     4.742003
O     6.092446     1.597852     5.445235
H     6.278913     2.516610     5.154180
H     1.355073     1.717489    -5.808978
O     1.162122     1.122444    -5.053641
H     1.525612     0.259260    -5.323141
H    -2.512044     3.040809     10.571599
O    -2.312114     2.110155     10.353865
H    -2.904442     1.907588     9.616859
H     7.641351    -0.491684     3.085722
O     6.891238     0.083927     3.254211
H     6.200368    -0.515162     3.637726
H    -5.652741    -8.053752    -0.660026
O    -4.916324    -8.121386    -0.015270
H    -4.919192    -7.303593     0.505787
H    -5.181269    -0.122712    -4.684935
O    -5.798827    -0.834973    -4.922013
H    -6.637448    -0.393728    -5.119091
H     1.879977    -0.205099    -7.500258
O     1.676248     0.265638    -8.344271
H     2.251559    -0.140240    -8.998189
H     4.858324    -1.401740    -9.294491
O     3.932458    -1.173451    -9.574927
H     3.910224    -1.292573    -10.523764
H     7.580728    -2.562503     4.204581
O     7.724962    -2.599887     3.244729
H     7.231484    -3.391474     2.975368
H     6.734891    -5.889078     2.695588
O     6.797455    -5.212876     3.395600
H     7.674350    -5.296638     3.811805
H    -1.807921     8.954351     3.508622
O    -1.558613     9.260069     4.406115
H    -2.406428     9.393696     4.862958
H    -7.395496     1.562909    -5.217351
O    -7.969453     0.818997    -4.969570
H    -8.871206     1.218400    -4.892471
H     6.914241    -1.090169    -8.399772
O     6.331711    -1.811581    -8.661169
H     6.105979    -2.260556    -7.828158
H    -1.686812     6.234841    -7.007692
O    -2.083955     5.409930    -6.731968
H    -1.833204     5.280474    -5.768756
H    -0.051539     3.509354     9.012409
O     0.326973     2.638724     9.247694
H    -0.375206     2.233903     9.777528
H     6.757255    -2.779965    -2.697809
O     6.227553    -3.523957    -2.354992
H     6.695908    -4.334934    -2.601305
H    -4.081483    -3.076918    -4.911848
O    -4.237832    -2.965565    -5.876416
H    -4.785538    -2.172828    -5.932494
H     1.994136     2.163582     8.356159
O     2.754738     2.321161     7.775887
H     3.128210     1.437562     7.599851
H    -6.903546    -5.201451    -1.354882
O    -7.819707    -5.471236    -1.597734
H    -7.955410    -5.070151    -2.481066
H    -3.810533     5.266994     5.716378
O    -3.777627     6.034192     5.124357
H    -2.843373     6.329132     5.217235
H    -7.882993     0.087196    -1.930292
O    -7.393997     0.810409    -2.345371
H    -7.624271     0.798470    -3.298214
H     5.845028     0.133667     0.417797
O     5.623916     0.855782     1.038185
H     6.136244     0.661966     1.850267
H    -6.179602     3.316496     7.435433
O    -6.043493     2.793442     8.259701
H    -6.653187     2.039212     8.175993
H     2.284177    -8.072335    -0.818481
O     2.959181    -8.060119    -1.516628
H     2.733230    -8.775218    -2.128163
H    -2.751429    -3.967035    -6.167131
O    -1.997297    -4.532963    -5.936242
H    -1.718917    -4.240188    -5.040145
H    -5.625110     3.770255     5.338422
O    -6.269150     4.164316     5.962114
H    -6.113391     5.109550     5.940532
H    -1.017962    -7.115911    -3.132740
O    -0.544637    -6.445286    -2.606376
H     0.362120    -6.376370    -2.989297
H     4.457882     2.026446     5.138565
O     3.515557     2.262464     5.020389
H     3.134192     2.277849     5.905515
H     4.127086     4.668340     6.307912
O     4.209453     5.396113     5.687058
H     3.638588     5.155257     4.919099
H     2.780000     3.625284     3.934054
O     2.600450     4.564619     3.765019
H     2.480279     4.661130     2.798790
H     9.398008     0.213455    -1.073000
O     8.592428     0.376487    -0.578810
H     8.418280    -0.441355    -0.083467
H    -2.065951     5.335626     10.669136
O    -2.786751     4.705668     10.903869
H    -3.004907     4.887064     11.818311
H     7.980844    -3.005687     0.332676
O     8.402282    -2.158539     0.585538
H     8.338845    -2.152260     1.548029
H     5.383665     3.673176     3.528944
O     6.042551     3.940491     4.191423
H     5.629886     4.656699     4.696106
H    -4.176865     5.038137     9.809740
O    -4.812542     5.185465     9.089137
H    -5.424534     4.437100     9.091810
H    -7.011552    -3.480556    -3.446075
O    -7.633066    -4.093095    -3.892027
H    -7.113659    -4.536075    -4.594915
H     0.054772     6.141902     10.783978
O    -0.809397     6.474861     10.536711
H    -0.692916     6.905108     9.670475
H     2.586408     1.493267    -4.093725
O     3.465228     1.846536    -3.857659
H     3.787496     1.332767    -3.087081
H    -6.951923    -0.207098     7.254525
O    -7.456060     0.574107     7.534795
H    -8.083518     0.756329     6.834222
H    -2.736516    -9.872130    -0.791516
O    -2.673963    -8.930644    -0.952560
H    -3.579447    -8.564153    -0.710656
H    -10.073721     3.071701    -4.860094
O    -10.189864     2.154583    -4.577828
H    -10.403626     2.239850    -3.627775
H    -2.047005    -3.016781     4.641393
O    -2.923831    -3.452726     4.716249
H    -2.921564    -4.073399     3.961936
H    -0.164781    -7.976924     2.515716
O     0.662362    -7.764483     2.961183
H     1.379627    -8.061705     2.373737
H     6.728961    -2.363103     6.399844
O     7.175670    -3.073869     5.935202
H     6.545684    -3.808811     5.900888
H    -5.253125    -1.994803     6.977250
O    -5.924826    -1.490705     6.493308
H    -5.914239    -1.870435     5.584896
H     0.826178     3.026408    -7.101231
O     1.743642     2.695499    -7.158868
H     1.728558     1.947177    -7.783720
H    -3.933911     8.769746     6.688835
O    -3.935891     8.765862     5.731467
H    -4.060761     7.837812     5.465554
H    -2.060608     10.313534    -2.727019
O    -2.963090     10.494306    -3.026851
H    -2.893438     11.127456    -3.740675
H     9.427053    -4.052332     4.047779
O     9.148056    -4.729880     4.671316
H     8.720907    -4.256678     5.396318
H    -0.740853    -6.002029    -5.811934
O    -0.036733    -6.567951    -5.478822
H     0.798339    -6.106929    -5.699251
H     1.832989     8.279610     0.668666
O     1.527097     8.599807    -0.208719
H     2.340465     8.637498    -0.741246
H     3.489379     2.924347    -6.654873
O     4.317970     2.634700    -6.247234
H     4.075028     2.362311    -5.337341
H     3.736294     7.126791    -1.228503
O     3.941110     8.062238    -1.444001
H     4.308468     8.004861    -2.338000
H     4.383561    -0.014477    -7.902662
O     4.762446     0.132945    -7.034225
H     4.581435     1.065263    -6.791601
H     6.036044     1.935907    -0.472179
O     6.599127     2.127930    -1.235930
H     7.424399     1.648923    -1.043359
H     6.687729    -8.430403    -1.591812
O     7.321657    -8.220656    -2.330364
H     7.688075    -9.055197    -2.617753
H    -5.306680    -5.792881    -5.368353
O    -5.924713    -5.121204    -5.682133
H    -5.374165    -4.353456    -5.921741
H     0.707036     7.186952     7.609280
O    -0.194557     7.222287     7.968361
H    -0.750028     7.234345     7.151109
H    -8.900338    -2.836639    -4.058443
O    -9.420017    -2.027731    -3.890457
H    -9.136068    -1.363984    -4.522736
H    -2.407823    -5.988183    -2.110934
O    -3.286689    -5.702168    -2.377559
H    -3.476008    -6.078045    -3.262420
H    -2.992015    -5.904153    -5.375329
O    -3.590700    -6.513140    -4.900527
H    -3.108472    -7.333315    -4.734204
H    -1.400662     3.720641    -6.965289
O    -0.859860     2.965257    -6.694431
H    -1.097781     2.179377    -7.242857
H    -0.216578     0.409877    -8.196832
O    -1.111957     0.645435    -7.911549
H    -1.285214     0.122795    -7.112601
H    -10.423385     4.052076    -2.696353
O    -10.489206     3.274365    -2.126693
H    -9.658584     3.249018    -1.619909
H     4.590276     4.086355     1.724145
O     4.381181     3.165347     2.001885
H     5.098038     2.589662     1.722741
H     6.482314     1.396227    -4.217035
O     6.180773     0.773038    -3.521567
H     6.213851     1.269596    -2.678447
H     9.637691    -2.223532    -0.929473
O     9.912048    -2.010532    -1.830290
H     9.110650    -1.672234    -2.272125
H     9.969073    -3.321382    -3.097895
O     9.700427    -3.974305    -3.771362
H     9.305158    -3.467640    -4.491419
H    -7.694806    -8.574354    -1.618010
O    -6.957553    -7.979661    -1.748083
H    -7.335659    -7.066890    -1.738716
H     4.157660     6.079520    -3.819353
O     4.818724     6.781064    -3.736822
H     5.655404     6.327603    -3.600611
H     0.092922    -8.174177    -5.185676
O     0.116896    -9.156885    -5.052449
H     0.265580    -9.521960    -5.924776
H    -2.331447    -8.674297    -2.679622
O    -2.100075    -8.411330    -3.590006
H    -1.454348    -9.030100    -3.949909
H     2.183234    -10.817776    -3.467225
O     2.136687    -9.863235    -3.443800
H     1.350104    -9.593341    -3.968672
H     6.831331     3.328379    -4.575605
O     6.887841     2.649170    -5.275623
H     6.093145     2.781555    -5.814690
H    -3.856521    -3.790134     7.585434
O    -3.695500    -2.959288     7.132680
H    -3.429047    -3.209654     6.215159
H    -0.646627    -3.367945    -6.699298
O    -0.016503    -2.636454    -6.709070
H    -0.497553    -1.860521    -6.367575
H     0.978657    -0.305812     9.011737
O     0.789540    -0.190090     8.076079
H    -0.147457    -0.424611     8.017853
H    -5.838537     7.365864    -4.228562
O    -6.342702     6.746069    -4.787465
H    -6.628281     6.016111    -4.194503
H    -4.281273     9.102425    -3.246541
O    -4.816545     8.306331    -3.137696
H    -4.406115     7.828018    -2.399145
H    -9.717044     5.793712    -4.611437
O    -10.249847     4.989145    -4.445476
H    -11.131131     5.189324    -4.762855
H     2.787095     6.527148     6.146590
O     1.826875     6.622590     6.243313
H     1.485852     5.706614     6.149137
H     4.809185     8.551535     0.080735
O     5.128347     8.553749     1.001020
H     5.536140     7.689928     1.132436
H     4.140006    -7.428042    -4.323254
O     3.380477    -7.713556    -4.863180
H     3.101528    -8.554225    -4.485418
H     0.393503     8.669230     4.242133
O     1.069275     8.023150     4.012637
H     1.298750     7.531710     4.827667
H     5.233890     4.191156    -3.156078
O     6.195461     4.161298    -3.105714
H     6.406307     3.581095    -2.357440
H    -2.613435    -1.661585     7.801345
O    -2.131104    -0.866106     8.098801
H    -2.804807    -0.175736     8.157673
H    -9.032271     7.934791    -4.116890
O    -8.970883     7.348522    -4.872514
H    -8.014095     7.184833    -5.010095
H     3.540081    -8.975015     1.113819
O     2.864035    -8.342662     1.362908
H     3.339464    -7.537109     1.640875
H     3.593832     8.178365     1.829256
O     2.803123     7.615564     1.943921
H     2.359755     7.851709     2.771500
N    -0.795957    -0.478523     10.646983
H    -1.263340     0.301513     10.970029
H    -1.367918    -0.790224     9.925870
