603

H     0.202027     3.029236    -0.706464
O     0.722482     2.361160    -1.202554
H     1.662594     2.490127    -0.933562
H    -0.051429    -1.305367     3.128769
O     0.336580    -0.605886     2.580668
H    -0.138971     0.208051     2.816561
H    -2.396517     2.408091    -0.548728
O    -2.181052     1.938348     0.274419
H    -2.197719     0.990296     0.050451
H    -4.644525     0.546237     2.183774
O    -4.961437    -0.387208     2.199170
H    -4.459834    -0.865209     1.530597
H     0.075610    -0.309076     0.927299
O    -0.127519    -0.073154     0.001358
H     0.211399     0.823315    -0.121548
H    -0.125051    -3.575012     3.758183
O    -0.402262    -2.744843     4.179548
H     0.248017    -2.572901     4.877221
H    -4.873609     2.528960     1.331341
O    -4.230666     2.119993     1.942803
H    -3.390703     2.102253     1.425458
H    -3.256896     3.893860    -2.220930
O    -2.517881     3.297207    -1.993860
H    -2.163952     3.009108    -2.855268
H    -0.115434    -3.805683     0.483227
O     0.226798    -2.987824     0.898273
H    -0.558621    -2.501126     1.214532
H    -2.356979    -1.538357     2.460337
O    -2.173214    -2.005334     1.618741
H    -2.435351    -1.418674     0.890224
H     2.072743    -1.445004    -1.155755
O     2.310118    -1.698255    -0.240092
H     1.523030    -2.124557     0.149251
H    -1.374107     1.824635     1.894051
O    -1.461934     1.427517     2.770696
H    -1.442984     2.140154     3.435240
H     0.206202    -2.705635    -1.592657
O    -0.549841    -2.094278    -1.643998
H    -0.367149    -1.367265    -1.011622
H    -3.432051    -2.928167    -0.393300
O    -2.717111    -3.420289    -0.818003
H    -2.008383    -2.789468    -1.040506
H     2.795910     0.131020     2.892760
O     2.898852    -0.051212     3.854355
H     2.993460     0.841843     4.257801
H    -3.528979     6.377457    -0.552669
O    -3.295060     7.039586    -1.254853
H    -3.150605     7.885041    -0.786001
H     3.915392     0.582834     1.142017
O     2.963369     0.403298     1.260482
H     2.724621    -0.350006     0.683626
H    -5.785061     0.838459    -1.596698
O    -4.874009     1.166169    -1.476185
H    -4.982191     1.995034    -0.964678
H    -1.195405     5.397415     2.188118
O    -1.820912     4.650034     2.075655
H    -1.893325     4.231883     2.938906
H     3.500350     2.762403     0.379782
O     3.247948     2.719067    -0.558507
H     3.575746     1.875192    -0.910811
H     1.485595    -4.699844    -2.279860
O     1.552745    -3.922111    -1.707804
H     2.345120    -3.460538    -2.062971
H    -0.930579    -0.088415    -2.566954
O    -0.298626     0.563888    -2.895623
H    -0.033820     1.146991    -2.160773
H     1.705337    -4.686295    -0.209214
O     1.817058    -5.323191     0.532790
H     1.351744    -6.134420     0.240225
H    -1.236227    -3.269446    -2.894800
O    -1.066156    -3.953465    -3.555862
H    -0.937270    -4.799875    -3.086638
H    -2.749390     3.310598     4.693299
O    -1.768423     3.308311     4.653552
H    -1.470426     2.907244     5.488310
H     0.988984     5.037105     4.041638
O     0.043079     5.269012     4.099330
H    -0.426813     4.465687     4.360470
H    -1.725513    -4.652639    -0.382282
O    -0.958745    -5.193577    -0.101925
H    -1.302753    -5.879212     0.479878
H    -3.929060     5.827687    -2.604855
O    -4.281555     4.993364    -2.932248
H    -4.131831     4.957847    -3.901181
H    -2.412853    -3.689591     1.928738
O    -2.428809    -4.593789     2.304757
H    -1.488169    -4.831120     2.440711
H    -4.705599    -2.984632    -2.893976
O    -3.855658    -3.217824    -3.305140
H    -3.521635    -4.010580    -2.840616
H     0.370925     1.379524     4.587468
O     0.873535     2.140016     4.249703
H     0.927594     2.799099     4.956057
H    -4.656975    -5.174033    -1.564469
O    -5.355760    -4.820513    -0.987114
H    -5.137298    -5.173782    -0.103786
H     2.310707    -6.486026    -4.072245
O     1.978841    -6.156459    -3.217106
H     2.416807    -6.729573    -2.555601
H     0.450394    -3.383697    -4.029810
O     1.250472    -3.017555    -4.458774
H     0.925230    -2.646145    -5.305137
H     1.988391    -1.751019     2.947402
O     2.141474    -2.682359     2.730217
H     1.451903    -2.896065     2.067240
H    -3.027481    -1.813759    -3.215665
O    -2.605043    -0.927181    -3.154344
H    -3.262773    -0.281893    -3.470101
H    -3.180537     4.974419     1.069503
O    -3.965071     5.347169     0.619237
H    -4.376263     5.905450     1.327414
H     0.895791     2.254760     2.559238
O     0.990805     2.248989     1.587456
H     1.717661     1.626212     1.420023
H     0.189340     5.655204    -0.788506
O     0.707166     6.317005    -1.301297
H     0.852760     7.117137    -0.746873
H     0.360953     7.037034     2.558528
O    -0.006046     6.655809     1.743661
H     0.656706     5.985243     1.478805
H    -2.455550     0.216024     3.330573
O    -2.674162    -0.597772     3.837339
H    -1.909921    -0.636292     4.454682
H    -0.853999     0.557214     6.005356
O    -0.584756     0.036874     5.229868
H     0.131258    -0.565587     5.512695
H     0.728325    -4.993454     1.955837
O     0.190395    -5.102957     2.763170
H     0.337340    -6.023107     3.035496
H    -2.108522    -8.089643     0.442447
O    -1.781507    -7.601304     1.225443
H    -2.565057    -7.289490     1.685822
H    -0.390169     6.860733    -2.353317
O    -1.139814     7.279812    -2.848715
H    -1.926285     7.153720    -2.280178
H    -1.106257     4.308564     0.552358
O    -0.738867     4.369019    -0.346075
H    -1.449131     4.126314    -0.973941
H    -4.384837     2.747656     3.505688
O    -4.378177     2.918814     4.470106
H    -4.458461     2.036025     4.880350
H     2.055215    -3.579452     4.210836
O     1.996793    -4.051453     5.064597
H     2.507699    -3.514071     5.691734
H     4.698592    -3.194472     0.789959
O     4.531910    -3.122781    -0.175913
H     3.673879    -2.642941    -0.254684
H    -2.724982    -0.751330    -1.360144
O    -3.047620    -0.481109    -0.484079
H    -3.849260     0.044616    -0.686595
H    -1.638217    -0.766066    -4.646158
O    -1.135519    -0.551173    -5.453096
H    -0.424788     0.046407    -5.172337
H     1.780080    -1.718762    -3.411104
O     1.876290    -0.971309    -2.789633
H     1.097954    -0.394436    -2.915789
H     3.684312    -3.120300     2.507086
O     4.642692    -3.349967     2.427733
H     4.698325    -4.309631     2.556482
H     3.451106    -6.119504     3.083801
O     3.801238    -5.920552     2.180895
H     3.060917    -5.574044     1.642437
H    -3.363512     1.605512    -4.184193
O    -4.207221     1.134842    -3.988291
H    -4.419160     1.281177    -3.030427
H    -5.078145     4.145077     0.068187
O    -5.517130     3.278838    -0.032176
H    -6.449221     3.397661    -0.308296
H     6.740046    -1.173901    -1.408493
O     5.955036    -1.032887    -0.874209
H     5.545430    -1.902866    -0.671001
H     4.584226    -3.170123    -2.518097
O     3.714953    -3.000454    -2.930932
H     3.714396    -3.620314    -3.685973
H     4.472869    -2.289502     5.573260
O     4.134251    -2.755217     6.368514
H     4.470384    -3.659623     6.285655
H    -0.721340     6.340440     5.049795
O    -1.315200     6.916591     5.590814
H    -1.331318     7.793256     5.148717
H     4.694796    -0.135283    -1.517767
O     3.924880     0.405346    -1.778681
H     3.231529    -0.197285    -2.102217
H    -0.762562     4.518745    -4.061186
O    -1.546541     5.061406    -4.265507
H    -1.393031     5.928397    -3.844264
H     0.648110     3.200595    -2.689056
O     0.649373     3.576243    -3.598140
H     0.693899     2.812167    -4.183002
H    -5.366718    -5.194570     1.805122
O    -4.672036    -5.789517     1.446263
H    -3.830028    -5.373142     1.711643
H     7.816977    -1.685529    -4.155158
O     7.614785    -1.351308    -3.248640
H     7.083538    -0.521629    -3.386651
H     3.675943    -5.076342    -5.332664
O     4.442454    -4.703256    -4.857528
H     4.828685    -5.413871    -4.312511
H    -3.750400     0.020131     4.932099
O    -4.347592     0.484503     5.567905
H    -5.005895    -0.173491     5.864111
H     3.468019    -5.944162    -0.559651
O     4.338151    -5.696612    -0.884281
H     4.414762    -4.734190    -0.739414
H     4.983153    -0.339843    -4.211888
O     4.445962    -1.051367    -4.600026
H     4.121883    -1.633240    -3.880040
H    -1.191166     1.567128    -3.955524
O    -1.844165     2.186859    -4.338366
H    -1.491333     2.518160    -5.186717
H     4.876795    -6.324553    -2.363333
O     5.205974    -6.649197    -3.230735
H     6.023397    -7.132287    -3.047623
H     8.720187    -5.107662    -3.004581
O     8.041623    -5.515832    -2.426358
H     8.069135    -6.474268    -2.524133
H     2.344564     4.719120     0.409471
O     1.768971     4.701865     1.183368
H     1.413017     3.781267     1.264425
H    -4.385165    -2.633058     4.234819
O    -5.280473    -2.294122     4.037278
H    -5.147193    -1.513351     3.460390
H    -5.832857    -3.197186     1.329755
O    -6.291597    -3.753779     2.001281
H    -6.098114    -3.317516     2.850324
H     1.730750     3.473656     6.824706
O     1.104153     3.988373     6.294289
H     0.324717     4.141677     6.870504
H     5.027268    -2.166422     3.563691
O     5.049943    -1.449558     4.228862
H     4.238657    -0.891942     4.074849
H     2.425588    -5.572836     4.804441
O     2.803878    -6.457173     4.542805
H     2.057691    -7.038830     4.374293
H     2.222056    -4.523418    -6.824393
O     2.059280    -5.010780    -6.006932
H     1.797218    -4.319003    -5.350760
H     6.440148    -4.105068    -0.560690
O     7.195681    -4.509839    -0.102804
H     7.699023    -4.932382    -0.825947
H    -1.676566     4.495085     7.682472
O    -0.775684     4.593807     8.062858
H    -0.594659     5.553006     8.084910
H    -5.148495     5.686198    -5.595984
O    -4.540862     4.922818    -5.619399
H    -3.786910     5.137065    -6.189818
H     3.236903    -2.535661    -8.478532
O     3.155062    -3.067939    -7.676339
H     4.033837    -3.042625    -7.252788
H    -0.671513     8.823462    -2.307147
O    -0.545727     9.652591    -1.790033
H     0.219954     9.478910    -1.217507
H     2.101961    -0.908829     5.175099
O     1.532510    -1.434117     5.766444
H     1.632296    -1.088256     6.662792
H     5.178310    -2.029279    -5.744696
O     5.524752    -2.795559    -6.267274
H     5.250363    -3.585560    -5.749808
H     5.728707    -5.210606     4.632340
O     5.211464    -5.125989     5.462125
H     4.489417    -5.757900     5.381014
H    -3.928791     1.150322     7.004648
O    -3.731986     1.626898     7.846960
H    -4.606608     2.012539     8.112519
H    -1.854006     9.612447    -0.768393
O    -2.711616     9.486301    -0.288755
H    -3.325294     10.114109    -0.673743
H    -5.962672     4.684316    -2.932592
O    -6.873317     4.564595    -3.271350
H    -6.786616     3.861477    -3.948146
H     0.093571    -7.066808    -1.161861
O     0.562573    -7.502395    -0.417011
H    -0.112439    -7.696358     0.236466
H    -7.645831     3.786392    -1.956792
O    -7.902846     3.200125    -1.214654
H    -7.761297     2.291131    -1.553997
H     4.019890    -0.886325     6.938538
O     4.027950     0.077813     6.929145
H     4.837169     0.367920     6.491724
H     2.253846     5.794224    -1.223583
O     3.190083     5.502179    -1.114448
H     3.362764     4.961140    -1.907815
H     6.558322    -5.931023     0.615099
O     6.193112    -6.667528     1.150546
H     5.290559    -6.389386     1.384295
H    -3.819804     4.734370     7.774460
O    -3.257045     4.271142     7.112503
H    -3.449262     3.327738     7.225115
H     5.769085    -7.946098     0.086531
O     5.479145    -8.633032    -0.550545
H     4.646253    -8.309181    -0.938396
H    -0.508254     2.047695     7.669865
O    -1.146010     1.982238     6.938782
H    -2.011964     1.840666     7.340773
H    -6.371988    -0.122857     1.075513
O    -6.697940    -0.207602     0.164718
H    -7.616507    -0.478445     0.188864
H    -5.370585    -3.066736    -0.578307
O    -5.114807    -2.364025     0.045401
H    -5.686058    -1.591361    -0.139358
H     4.322483     5.577981     0.264594
O     4.661109     5.680414     1.167747
H     3.968693     6.190292     1.623425
H    -9.052812    -1.750262    -2.222487
O    -8.500219    -1.547887    -1.440028
H    -8.623457    -2.283870    -0.800785
H    -5.554160     3.463362    -5.522716
O    -6.068782     2.752851    -5.104359
H    -5.399577     2.168114    -4.693811
H     3.151948    -0.894429    -5.696842
O     2.293810    -1.014773    -6.158438
H     2.375625    -1.864684    -6.630584
H     8.078760    -1.352229    -6.103814
O     8.094725    -2.215416    -5.644984
H     7.236682    -2.617979    -5.887283
H     7.584128     0.988134    -6.380222
O     7.397614     0.137181    -6.789478
H     6.415849     0.084915    -6.822121
H    -7.850072    -3.694361     0.955748
O    -8.532638    -3.588499     0.275329
H    -8.437712    -4.348531    -0.326094
H    -2.398030     8.736598     1.274190
O    -2.242724     8.148861     2.026911
H    -1.473635     7.595765     1.800246
H    -4.420833     6.437141     3.492416
O    -4.596457     6.862182     2.636508
H    -3.834043     7.448190     2.491682
H     3.382853     3.442683    -3.625313
O     3.228788     4.411839    -3.533007
H     2.263244     4.475647    -3.634378
H    -6.131866    -1.611190    -3.428732
O    -6.209978    -2.189861    -2.643839
H    -6.990840    -1.882237    -2.130637
H     6.499499     1.054617     4.675051
O     6.108829     1.593510     5.380194
H     6.295703     2.511748     5.087421
H     1.330206     1.715720    -5.856911
O     1.139756     1.120453    -5.101241
H     1.502599     0.257420    -5.371642
H    -2.423892     2.972338     10.471083
O    -2.213349     2.064371     10.197719
H    -2.815032     1.863957     9.468822
H     7.651004    -0.490146     3.011550
O     6.900861     0.082209     3.190317
H     6.212201    -0.520100     3.570629
H    -5.657585    -8.057027    -0.683663
O    -4.918799    -8.124963    -0.041664
H    -4.919594    -7.307143     0.479537
H    -5.201723    -0.125431    -4.708657
O    -5.819901    -0.837664    -4.944297
H    -6.659405    -0.396449    -5.137631
H     1.848846    -0.206429    -7.550477
O     1.642218     0.264065    -8.393851
H     2.214742    -0.142041    -9.049979
H     4.820553    -1.403292    -9.356611
O     3.893890    -1.174714    -9.633126
H     3.867434    -1.293149    -10.581945
H     7.596348    -2.563167     4.127834
O     7.738726    -2.602655     3.167959
H     7.240813    -3.391916     2.900919
H     6.742153    -5.892991     2.627043
O     6.807796    -5.216153     3.325799
H     7.686407    -5.298938     3.738624
H    -1.798772     8.949929     3.474421
O    -1.546069     9.255834     4.370952
H    -2.392252     9.388243     4.831265
H    -7.418068     1.559936    -5.232513
O    -7.991203     0.815821    -4.983439
H    -8.892556     1.215276    -4.902373
H     6.878659    -1.090542    -8.469593
O     6.297434    -1.813932    -8.728042
H     6.073800    -2.261646    -7.893726
H    -1.716494     6.233004    -7.043129
O    -2.112247     5.407733    -6.766501
H    -1.858148     5.278089    -5.804076
H     0.057495     3.319241     8.995436
O     0.256094     2.399806     9.250486
H    -0.539190     2.136050     9.761839
H     6.746577    -2.779158    -2.764922
O     6.218581    -3.523873    -2.422880
H     6.683770    -4.335771    -2.671354
H    -4.102658    -3.079687    -4.940364
O    -4.262473    -2.968141    -5.904409
H    -4.810451    -2.175394    -5.958104
H     2.033914     2.191609     8.426976
O     2.693253     2.303911     7.732637
H     3.115609     1.433942     7.615353
H    -6.911191    -5.205148    -1.373103
O    -7.828090    -5.475333    -1.613014
H    -7.967098    -5.073630    -2.495516
H    -3.790887     5.260806     5.690173
O    -3.761995     6.028684     5.098443
H    -2.827489     6.323336     5.186547
H    -7.893038     0.083581    -1.943461
O    -7.405995     0.806826    -2.360822
H    -7.639986     0.794664    -3.312637
H     5.849228     0.142950     0.349460
O     5.612846     0.849727     0.980882
H     6.140280     0.660946     1.783143
H    -6.168223     3.317249     7.405559
O    -6.035406     2.799952     8.234035
H    -6.635885     2.038320     8.150081
H     2.278869    -8.074791    -0.871682
O     2.951448    -8.063209    -1.572286
H     2.722421    -8.778016    -2.183007
H    -2.777173    -3.969343    -6.200649
O    -2.021717    -4.534879    -5.972980
H    -1.740433    -4.242405    -5.077630
H    -5.609382     3.765365     5.314901
O    -6.254962     4.162481     5.935469
H    -6.091373     5.106500     5.920277
H    -1.032408    -7.118668    -3.173699
O    -0.556877    -6.448131    -2.649277
H     0.348229    -6.378959    -3.035565
H     4.478713     2.022327     5.075256
O     3.535997     2.261354     4.961154
H     3.157579     2.278260     5.845509
H     4.150131     4.664084     6.247216
O     4.225105     5.394628     5.628867
H     3.654045     5.152254     4.861141
H     2.791571     3.621604     3.878534
O     2.611727     4.561349     3.712609
H     2.487229     4.658785     2.746776
H     9.441598     0.631760    -0.717934
O     8.526060     0.609394    -0.378851
H     8.399125    -0.282084    -0.022010
H    -2.034915     5.331692     10.633545
O    -2.755392     4.703257     10.870034
H    -2.968181     4.881559     11.786309
H     7.935833    -3.078478     0.316118
O     8.386742    -2.235390     0.547247
H     8.348004    -2.243990     1.515783
H     5.395221     3.669027     3.464817
O     6.053965     3.935599     4.127895
H     5.644534     4.655096     4.629853
H    -4.148162     5.032253     9.780704
O    -4.785856     5.182197     9.062529
H    -5.397250     4.433196     9.064519
H    -7.027343    -3.483601    -3.463670
O    -7.650344    -4.096155    -3.907695
H    -7.133405    -4.538822    -4.612521
H     0.093903     6.140513     10.740121
O    -0.772182     6.471719     10.497884
H    -0.661724     6.901038     9.630232
H     2.568515     1.491242    -4.145561
O     3.448851     1.843580    -3.914317
H     3.773363     1.330958    -3.143478
H    -6.925722    -0.211912     7.237615
O    -7.433027     0.566613     7.520229
H    -8.060182     0.749299     6.819477
H    -2.742330    -9.875252    -0.826412
O    -2.680361    -8.933856    -0.988165
H    -3.584798    -8.567156    -0.742193
H    -10.094983     3.068517    -4.864989
O    -10.210292     2.151352    -4.582555
H    -10.420170     2.236478    -3.631583
H    -2.035733    -3.019849     4.605866
O    -2.910191    -3.460050     4.681265
H    -2.908525    -4.078665     3.925667
H    -0.158291    -7.980169     2.471467
O     0.670802    -7.769446     2.914183
H     1.385558    -8.065611     2.323262
H     6.750452    -2.366659     6.328660
O     7.196204    -3.078297     5.864416
H     6.565131    -3.812319     5.831575
H    -5.226573    -1.996393     6.953598
O    -5.906115    -1.499241     6.473247
H    -5.895082    -1.877123     5.564358
H     0.796634     3.024876    -7.146520
O     1.714003     2.694267    -7.208467
H     1.696046     1.945969    -7.833117
H    -3.913037     8.763581     6.662821
O    -3.917609     8.760342     5.705461
H    -4.043705     7.832339     5.439660
H    -2.074934     10.310424    -2.760226
O    -2.978369     10.491562    -3.057001
H    -2.910907     11.124599    -3.771129
H     9.439654    -4.053946     3.968393
O     9.163635    -4.732640     4.592075
H     8.738287    -4.260244     5.318721
H    -0.765321    -6.003995    -5.853239
O    -0.059670    -6.570249    -5.523880
H     0.774410    -6.108790    -5.746801
H     1.831117     8.276363     0.619897
O     1.522305     8.597142    -0.256236
H     2.333752     8.634441    -0.791699
H     3.461922     2.922097    -6.710276
O     4.291857     2.630944    -6.306424
H     4.052397     2.360182    -5.394936
H     3.727889     7.124150    -1.284454
O     3.931734     8.059634    -1.500912
H     4.295992     8.002045    -2.396179
H     4.351275    -0.015589    -7.961246
O     4.736789     0.131426    -7.095650
H     4.554225     1.063030    -6.850150
H     5.864393     1.946869    -0.649565
O     6.516715     2.140237    -1.335391
H     7.315444     1.657093    -1.034251
H     6.679394    -8.432086    -1.661423
O     7.311734    -8.222361    -2.401978
H     7.676291    -9.057200    -2.690859
H    -5.329364    -5.795288    -5.392818
O    -5.948511    -5.123853    -5.704886
H    -5.398939    -4.355744    -5.945630
H     0.730294     7.182264     7.564975
O    -0.169071     7.210299     7.929979
H    -0.729486     7.223806     7.115839
H    -8.918049    -2.839731    -4.069120
O    -9.437750    -2.031171    -3.899538
H    -9.155535    -1.366916    -4.532058
H    -2.418270    -5.991136    -2.145832
O    -3.298062    -5.705407    -2.409619
H    -3.490574    -6.081127    -3.293725
H    -3.014587    -5.906469    -5.408676
O    -3.611482    -6.515841    -4.932215
H    -3.128441    -7.335810    -4.767335
H    -1.429669     3.718877    -7.002334
O    -0.887431     2.963428    -6.734464
H    -1.128206     2.177676    -7.281680
H    -0.250528     0.408049    -8.238987
O    -1.144930     0.643260    -7.950577
H    -1.315014     0.120934    -7.150682
H    -10.436606     4.048549    -2.699619
O    -10.500505     3.270477    -2.130277
H    -9.667945     3.244683    -1.626547
H     4.595250     4.082486     1.663800
O     4.386522     3.162022     1.942593
H     5.101947     2.584588     1.661758
H     6.466039     1.389650    -4.279858
O     6.173427     0.763434    -3.583988
H     6.200212     1.264843    -2.741552
H     9.606662    -2.255824    -1.010310
O     9.878558    -2.063688    -1.925272
H     9.072833    -1.656605    -2.321488
H     9.901325    -3.442163    -3.250318
O     9.699800    -4.087242    -3.954265
H     9.209314    -3.582950    -4.618013
H    -7.703517    -8.577543    -1.633468
O    -6.966549    -7.983319    -1.767271
H    -7.344233    -7.070289    -1.756121
H     4.139799     6.077353    -3.876616
O     4.801296     6.778947    -3.797838
H     5.638108     6.325172    -3.662907
H     0.070956    -8.176417    -5.230707
O     0.096090    -9.159135    -5.097847
H     0.240851    -9.523934    -5.970941
H    -2.344411    -8.676811    -2.715743
O    -2.116016    -8.414210    -3.627066
H    -1.471541    -9.033150    -3.988777
H     2.167251    -10.820272    -3.519942
O     2.122028    -9.865632    -3.497543
H     1.333051    -9.595556    -4.018794
H     6.810970     3.324064    -4.641188
O     6.867022     2.646590    -5.343787
H     6.069353     2.779087    -5.878357
H    -3.512934    -3.714068     7.722820
O    -3.631227    -2.927056     7.192475
H    -3.385153    -3.166898     6.272961
H    -0.674555    -3.369577    -6.740630
O    -0.044290    -2.638193    -6.753138
H    -0.523946    -1.862364    -6.409161
H     0.698273     0.471622     8.723975
O     0.701965    -0.244307     8.084639
H    -0.220762    -0.533205     8.002755
H    -5.858098     7.362720    -4.248378
O    -6.364311     6.743141    -4.805668
H    -6.647389     6.012772    -4.211890
H    -4.297216     9.099353    -3.271673
O    -4.832065     8.303205    -3.161249
H    -4.419026     7.824623    -2.424277
H    -9.737454     5.790624    -4.617588
O    -10.269610     4.985988    -4.449960
H    -11.152238     5.186363    -4.763432
H     2.807517     6.523364     6.092112
O     1.847947     6.620157     6.195766
H     1.504037     5.706623     6.096270
H     4.805538     8.548652     0.021020
O     5.128145     8.550887     0.940094
H     5.536412     7.686978     1.069779
H     4.121415    -7.430304    -4.382879
O     3.360679    -7.715985    -4.920910
H     3.082096    -8.556252    -4.541926
H     0.404068     8.665093     4.198469
O     1.080538     8.020465     3.966792
H     1.312370     7.528530     4.780553
H     5.218329     4.189744    -3.220995
O     6.180093     4.160647    -3.176665
H     6.392437     3.578667    -2.428516
H    -2.528125    -1.536042     7.566591
O    -2.016655    -0.742513     7.782753
H    -2.640266    -0.115856     8.159899
H    -9.051363     7.931224    -4.124542
O    -8.992577     7.345828    -4.881055
H    -8.036249     7.181847    -5.021717
H     3.542473    -8.978148     1.056310
O     2.866759    -8.346108     1.306846
H     3.342307    -7.540223     1.584022
H     3.596723     8.175226     1.773891
O     2.806408     7.612453     1.891455
H     2.365894     7.848511     2.720511
N     11.091461     0.369862    -1.489900
H     10.847903    -0.546724    -1.745462
H     11.223067     0.831998    -2.323046
