603

H     0.204978     3.031115    -0.671157
O     0.727846     2.361676    -1.162792
H     1.666798     2.491658    -0.890365
H    -0.069869    -1.292187     3.158563
O     0.330034    -0.592699     2.617888
H    -0.150487     0.219848     2.847804
H    -2.393839     2.409756    -0.525301
O    -2.183182     1.940108     0.299277
H    -2.198573     0.992094     0.074770
H    -4.656450     0.548634     2.196734
O    -4.969057    -0.386461     2.215104
H    -4.470035    -0.862223     1.542916
H     0.072614    -0.304668     0.964387
O    -0.128178    -0.070149     0.037532
H     0.211309     0.826018    -0.085974
H    -0.136073    -3.431968     3.751434
O    -0.464467    -2.646144     4.216582
H     0.218921    -2.425794     4.871822
H    -4.881465     2.531032     1.341471
O    -4.241658     2.121654     1.956220
H    -3.399198     2.104777     1.442679
H    -3.245837     3.893567    -2.203789
O    -2.507983     3.297171    -1.971958
H    -2.149783     3.008128    -2.831399
H    -0.112359    -3.802425     0.527217
O     0.225374    -2.980062     0.937850
H    -0.563451    -2.495554     1.246801
H    -2.370755    -1.528752     2.483168
O    -2.181293    -1.998512     1.644976
H    -2.440494    -1.415554     0.912342
H     2.079460    -1.444128    -1.105933
O     2.311178    -1.694575    -0.187784
H     1.521698    -2.122851     0.195916
H    -1.386341     1.826492     1.922867
O    -1.477313     1.430469     2.799864
H    -1.462561     2.144687     3.462898
H     0.214465    -2.705712    -1.552617
O    -0.541362    -2.094215    -1.607496
H    -0.361260    -1.366446    -0.975534
H    -3.431647    -2.925316    -0.373907
O    -2.712420    -3.418939    -0.789127
H    -2.002874    -2.789144    -1.011780
H     2.778845     0.134375     2.945805
O     2.878238    -0.046653     3.908089
H     2.971062     0.847374     4.310453
H    -3.527046     6.378618    -0.539350
O    -3.289098     7.040031    -1.240679
H    -3.147603     7.886104    -0.772018
H     3.907796     0.588312     1.195946
O     2.957929     0.404541     1.314736
H     2.720261    -0.346752     0.733779
H    -5.777098     0.838255    -1.590733
O    -4.866714     1.165710    -1.464151
H    -4.978033     1.995258    -0.954507
H    -1.207571     5.401540     2.213931
O    -1.831881     4.653438     2.099370
H    -1.909206     4.236989     2.962920
H     3.498498     2.765813     0.431438
O     3.249405     2.721084    -0.507260
H     3.582508     1.878387    -0.857076
H     1.497432    -4.700009    -2.229486
O     1.562494    -3.921587    -1.657880
H     2.356300    -3.460949    -2.011206
H    -0.917746    -0.089199    -2.535160
O    -0.283959     0.562995    -2.860593
H    -0.023472     1.146771    -2.124914
H     1.705024    -4.686656    -0.156871
O     1.812133    -5.322580     0.586926
H     1.350427    -6.135505     0.291050
H    -1.221353    -3.271134    -2.860628
O    -1.047483    -3.955020    -3.520636
H    -0.920688    -4.801686    -3.050831
H    -2.773874     3.317023     4.713178
O    -1.792628     3.313192     4.678569
H    -1.499485     2.914558     5.516103
H     0.967544     5.043081     4.079286
O     0.021349     5.274576     4.131998
H    -0.449972     4.471609     4.391428
H    -1.722257    -4.653092    -0.348085
O    -0.955922    -5.189018    -0.059149
H    -1.302291    -5.881565     0.513780
H    -3.916562     5.826874    -2.593383
O    -4.266940     4.991871    -2.921252
H    -4.112935     4.955485    -3.889578
H    -2.434535    -3.620383     1.890927
O    -2.473692    -4.506784     2.315429
H    -1.544149    -4.821645     2.339106
H    -4.690385    -2.986532    -2.878005
O    -3.837843    -3.218870    -3.284101
H    -3.506468    -4.012491    -2.818811
H     0.345860     1.387357     4.625083
O     0.852994     2.145641     4.290262
H     0.901582     2.806705     4.995291
H    -4.648699    -5.173996    -1.546832
O    -5.349739    -4.818766    -0.973121
H    -5.136110    -5.173186    -0.088805
H     2.332199    -6.487374    -4.016663
O     1.995886    -6.156680    -3.163634
H     2.429668    -6.730460    -2.499635
H     0.471415    -3.385364    -3.987306
O     1.273579    -3.018018    -4.411285
H     0.953375    -2.648769    -5.260498
H     1.988957    -1.712654     2.913637
O     2.117094    -2.663812     2.782348
H     1.475826    -2.888358     2.076622
H    -3.010725    -1.815321    -3.191913
O    -2.589280    -0.928298    -3.127828
H    -3.245007    -0.283807    -3.449229
H    -3.186799     4.977043     1.085890
O    -3.969159     5.348981     0.631412
H    -4.384104     5.908075     1.336726
H     0.882698     2.259845     2.599244
O     0.982206     2.252614     1.628059
H     1.709655     1.629816     1.464376
H     0.192547     5.656640    -0.755448
O     0.713648     6.317753    -1.265729
H     0.855658     7.118743    -0.711642
H     0.346786     7.041688     2.591180
O    -0.015917     6.659073     1.775048
H     0.648624     5.988881     1.513978
H    -2.475747     0.217890     3.354570
O    -2.691286    -0.596049     3.863117
H    -1.929475    -0.622889     4.484842
H    -0.887211     0.569215     6.037424
O    -0.614776     0.043970     5.265959
H     0.102550    -0.552840     5.554682
H     0.747117    -5.094143     1.899765
O     0.195240    -5.092021     2.710013
H     0.309385    -6.004025     3.038049
H    -2.111759    -8.086266     0.477316
O    -1.786211    -7.589974     1.255013
H    -2.568994    -7.290970     1.724693
H    -0.378909     6.860551    -2.324404
O    -1.125943     7.279307    -2.823656
H    -1.915438     7.153507    -2.259254
H    -1.110033     4.311112     0.579674
O    -0.737672     4.370618    -0.316696
H    -1.444584     4.127426    -0.948343
H    -4.403572     2.752594     3.517306
O    -4.400922     2.924612     4.481623
H    -4.484522     2.042643     4.892534
H     2.056048    -3.597198     4.327739
O     2.040848    -4.058471     5.192847
H     2.559525    -3.471083     5.780108
H     4.695093    -3.190578     0.854242
O     4.533933    -3.116297    -0.111918
H     3.674570    -2.639922    -0.196382
H    -2.718213    -0.751105    -1.336022
O    -3.045361    -0.479938    -0.461684
H    -3.845962     0.045516    -0.669412
H    -1.614246    -0.768821    -4.616322
O    -1.108185    -0.553650    -5.420910
H    -0.398230     0.043386    -5.137216
H     1.798724    -1.719501    -3.362448
O     1.891030    -0.971671    -2.740381
H     1.113467    -0.395088    -2.872361
H     3.667441    -3.119870     2.569282
O     4.627024    -3.344205     2.494951
H     4.684760    -4.305113     2.618897
H     3.431681    -6.119346     3.142513
O     3.791767    -5.909421     2.246160
H     3.052469    -5.573365     1.699650
H    -3.342113     1.603410    -4.165711
O    -4.186740     1.132780    -3.973541
H    -4.403575     1.279924    -3.017104
H    -5.079580     4.146153     0.075553
O    -5.517822     3.279593    -0.024963
H    -6.448322     3.397746    -0.307293
H     6.738795    -1.181146    -1.353059
O     5.967120    -1.031033    -0.800521
H     5.548717    -1.898768    -0.601782
H     4.598739    -3.171300    -2.455891
O     3.730439    -3.000729    -2.871243
H     3.733181    -3.621002    -3.626259
H     4.439105    -2.286264     5.636051
O     4.085354    -2.757086     6.421979
H     4.437276    -3.656684     6.348207
H    -0.748289     6.347444     5.077322
O    -1.344960     6.923594     5.614957
H    -1.359298     7.799994     5.172019
H     4.702717    -0.136873    -1.457152
O     3.934537     0.404661    -1.719413
H     3.242432    -0.196736    -2.048988
H    -0.742359     4.517013    -4.032005
O    -1.525555     5.059258    -4.240186
H    -1.374103     5.926836    -3.819581
H     0.661316     3.200017    -2.651625
O     0.667835     3.575200    -3.560692
H     0.715056     2.810792    -4.144985
H    -5.375515    -5.193823     1.819996
O    -4.678834    -5.785706     1.461806
H    -3.838104    -5.372114     1.735024
H     7.884023    -1.694327    -4.023909
O     7.626707    -1.379400    -3.124628
H     7.139486    -0.536053    -3.282530
H     3.704150    -5.079709    -5.271481
O     4.466787    -4.704920    -4.791709
H     4.852045    -5.415031    -4.245190
H    -3.777210     0.026297     4.949565
O    -4.376933     0.490806     5.581795
H    -5.036530    -0.166587     5.876659
H     3.471273    -5.942921    -0.500013
O     4.343814    -5.694873    -0.817589
H     4.419041    -4.732309    -0.676487
H     5.002520    -0.341113    -4.150998
O     4.466923    -1.053137    -4.539164
H     4.141876    -1.635761    -3.820196
H    -1.171215     1.565247    -3.926245
O    -1.822166     2.185279    -4.311996
H    -1.465668     2.515318    -5.159433
H     4.890358    -6.324542    -2.295408
O     5.223424    -6.649556    -3.160876
H     6.041126    -7.130886    -2.973900
H     8.744896    -5.093942    -2.903218
O     8.054355    -5.510576    -2.343245
H     8.088726    -6.468132    -2.443939
H     2.341493     4.722318     0.454003
O     1.763252     4.705083     1.226007
H     1.405813     3.785029     1.304835
H    -4.401043    -2.633700     4.253339
O    -5.292563    -2.292496     4.052916
H    -5.159753    -1.512466     3.473950
H    -5.839742    -3.194160     1.339356
O    -6.302597    -3.749489     2.009098
H    -6.114399    -3.314711     2.859064
H     1.694688     3.482514     6.867909
O     1.070672     3.995622     6.333108
H     0.288560     4.150871     6.905476
H     5.008841    -2.161318     3.630378
O     5.027603    -1.443700     4.295534
H     4.217343    -0.886097     4.135834
H     2.471670    -5.631796     4.881856
O     2.842402    -6.512889     4.623447
H     2.093815    -7.102599     4.493075
H     2.258106    -4.526801    -6.771779
O     2.090115    -5.013636    -5.955032
H     1.825560    -4.321657    -5.300534
H     6.445688    -4.101742    -0.489025
O     7.199391    -4.502855    -0.024865
H     7.706441    -4.927332    -0.744861
H    -1.716741     4.504204     7.707119
O    -0.817255     4.602941     8.090925
H    -0.636818     5.562321     8.114197
H    -5.120738     5.682387    -5.590138
O    -4.512627     4.919255    -5.609187
H    -3.756120     5.132837    -6.176486
H     3.280429    -2.540893    -8.422632
O     3.193419    -3.071671    -7.620018
H     4.070446    -3.046849    -7.192074
H    -0.660837     8.823440    -2.281259
O    -0.537853     9.652875    -1.763948
H     0.225082     9.480007    -1.187651
H     2.072586    -0.750225     5.275503
O     1.535116    -1.310765     5.868401
H     1.547085    -0.897611     6.750781
H     5.206511    -2.032423    -5.681092
O     5.552748    -2.799463    -6.201820
H     5.279376    -3.588650    -5.682701
H     5.704791    -5.204831     4.703423
O     5.179720    -5.116696     5.528277
H     4.464114    -5.756034     5.446605
H    -3.965239     1.158409     7.021154
O    -3.772308     1.635816     7.863457
H    -4.648433     2.021869     8.124400
H    -1.851480     9.613584    -0.749284
O    -2.711392     9.487588    -0.273726
H    -3.323257     10.114988    -0.662295
H    -5.948289     4.682780    -2.930097
O    -6.857246     4.562485    -3.273046
H    -6.767067     3.858981    -3.949034
H     0.098503    -7.066831    -1.115358
O     0.566799    -7.498960    -0.368562
H    -0.108270    -7.695137     0.284750
H    -7.636382     3.785546    -1.961922
O    -7.896302     3.199802    -1.220328
H    -7.753770     2.290557    -1.558676
H     3.984278    -0.878865     6.998290
O     3.990829     0.084992     6.985095
H     4.803365     0.375722     6.554316
H     2.259472     5.795675    -1.179530
O     3.195106     5.503274    -1.065181
H     3.371428     4.962121    -1.857803
H     6.557215    -5.926171     0.690682
O     6.189651    -6.660850     1.227156
H     5.284607    -6.384543     1.453157
H    -3.860079     4.743137     7.787849
O    -3.293758     4.279036     7.129323
H    -3.487320     3.335942     7.241824
H     5.769686    -7.943401     0.160125
O     5.482832    -8.630681    -0.477342
H     4.651695    -8.307624    -0.869765
H    -0.548447     2.056910     7.703093
O    -1.181923     1.988427     6.968322
H    -2.050433     1.849553     7.365980
H    -6.379854    -0.120657     1.081933
O    -6.698289    -0.206579     0.169053
H    -7.617112    -0.477430     0.185766
H    -5.366463    -3.067221    -0.564301
O    -5.114589    -2.362435     0.059177
H    -5.685492    -1.590896    -0.130997
H     4.320015     5.580673     0.319148
O     4.654223     5.682736     1.224103
H     3.960128     6.194253     1.675631
H    -9.041015    -1.751250    -2.229782
O    -8.492664    -1.548032    -1.444449
H    -8.619021    -2.284020    -0.805690
H    -5.526427     3.459601    -5.517052
O    -6.043054     2.749613    -5.100287
H    -5.375848     2.165070    -4.686302
H     3.180235    -0.897248    -5.643612
O     2.323946    -1.018327    -6.108439
H     2.409385    -1.868269    -6.580304
H     8.114160    -1.357543    -6.020575
O     8.123031    -2.220495    -5.562191
H     7.266936    -2.621517    -5.811501
H     7.619171     0.982275    -6.305508
O     7.430267     0.133035    -6.716807
H     6.448921     0.082521    -6.752253
H    -7.854906    -3.693330     0.955744
O    -8.533428    -3.587022     0.271491
H    -8.435852    -4.347789    -0.328778
H    -2.406138     8.739543     1.291232
O    -2.254267     8.152483     2.045250
H    -1.484029     7.599456     1.822651
H    -4.439739     6.441873     3.501173
O    -4.610860     6.865816     2.643872
H    -3.848053     7.452123     2.502416
H     3.400579     3.441750    -3.573993
O     3.246901     4.411106    -3.481935
H     2.281963     4.475186    -3.589353
H    -6.114177    -1.613496    -3.421266
O    -6.195720    -2.190550    -2.635532
H    -6.980111    -1.883404    -2.127591
H     6.475277     1.061677     4.745239
O     6.080855     1.600964     5.447599
H     6.268322     2.519406     5.155148
H     1.359991     1.712402    -5.814358
O     1.166567     1.118040    -5.058616
H     1.529935     0.254502    -5.327265
H    -2.477831     2.983437     10.493622
O    -2.265112     2.075766     10.220838
H    -2.864421     1.874549     9.490262
H     7.633867    -0.488781     3.091035
O     6.883146     0.085944     3.260210
H     6.192422    -0.514307     3.641305
H    -5.653164    -8.056348    -0.668309
O    -4.917320    -8.123721    -0.023232
H    -4.920493    -7.306633     0.498849
H    -5.177725    -0.128534    -4.698073
O    -5.794742    -0.841071    -4.935577
H    -6.633273    -0.400282    -5.133980
H     1.887469    -0.211275    -7.503570
O     1.685026     0.259076    -8.348122
H     2.261120    -0.147332    -9.001018
H     4.868690    -1.408363    -9.292812
O     3.943247    -1.180203    -9.574670
H     3.922214    -1.300268    -10.523419
H     7.572300    -2.560152     4.211362
O     7.716938    -2.597196     3.251709
H     7.225270    -3.389871     2.981938
H     6.727662    -5.886905     2.704131
O     6.790387    -5.210089     3.403955
H     7.666904    -5.294780     3.820511
H    -1.817751     8.954999     3.494260
O    -1.569357     9.261125     4.391935
H    -2.417796     9.394672     4.847746
H    -7.391661     1.556123    -5.234610
O    -7.965737     0.812271    -4.987009
H    -8.867723     1.211418    -4.911484
H     6.923314    -1.095936    -8.395329
O     6.341260    -1.817596    -8.657058
H     6.114427    -2.266133    -7.824095
H    -1.681372     6.228318    -7.020384
O    -2.078634     5.403443    -6.744741
H    -1.829323     5.274644    -5.781120
H     0.011009     3.329559     9.030135
O     0.208098     2.409844     9.285408
H    -0.589172     2.146852     9.794236
H     6.758765    -2.781963    -2.692581
O     6.228993    -3.525562    -2.349169
H     6.697344    -4.336835    -2.594697
H    -4.076917    -3.082793    -4.921188
O    -4.231793    -2.971888    -5.886071
H    -4.779938    -2.179566    -5.943391
H     1.989927     2.202742     8.472717
O     2.652785     2.313010     7.781308
H     3.075545     1.442932     7.668257
H    -6.903386    -5.205319    -1.366559
O    -7.819471    -5.474770    -1.610297
H    -7.953906    -5.074906    -2.494266
H    -3.820929     5.267493     5.703592
O    -3.788927     6.034281     5.110697
H    -2.855195     6.329832     5.203628
H    -7.883214     0.082432    -1.947032
O    -7.393862     0.805579    -2.361898
H    -7.622917     0.792846    -3.315033
H     5.841617     0.133985     0.419496
O     5.619309     0.856139     1.039657
H     6.130870     0.663190     1.852117
H    -6.206586     3.325164     7.408440
O    -6.077170     2.808228     8.237672
H    -6.677886     2.047030     8.151877
H     2.286830    -8.073852    -0.814266
O     2.960369    -8.060865    -1.514246
H     2.734904    -8.777606    -2.123984
H    -2.744911    -3.973382    -6.174122
O    -1.990450    -4.538385    -5.942177
H    -1.713774    -4.245519    -5.045551
H    -5.637188     3.772106     5.319586
O    -6.285593     4.168966     5.937135
H    -6.123363     5.113201     5.921361
H    -1.015421    -7.119876    -3.134644
O    -0.543252    -6.447491    -2.609387
H     0.364423    -6.380125    -2.990028
H     4.451860     2.029428     5.134329
O     3.509514     2.266353     5.014634
H     3.126643     2.286671     5.897039
H     4.116810     4.672604     6.301985
O     4.196941     5.401327     5.682172
H     3.628634     5.159222     4.912295
H     2.770943     3.627363     3.926270
O     2.592408     4.567005     3.759151
H     2.472121     4.664124     2.792601
H     9.396108     0.213398    -1.066240
O     8.590623     0.376920    -0.571975
H     8.415538    -0.441373    -0.077673
H    -2.090568     5.342863     10.655813
O    -2.812005     4.714271     10.888818
H    -3.030055     4.893376     11.803719
H     7.978122    -3.005102     0.339608
O     8.398776    -2.157558     0.593005
H     8.334223    -2.151222     1.555332
H     5.376361     3.675207     3.526484
O     6.032456     3.941025     4.192724
H     5.620687     4.660980     4.692446
H    -4.199117     5.042853     9.792145
O    -4.832447     5.191666     9.069878
H    -5.444539     4.443251     9.070057
H    -7.008805    -3.486130    -3.459282
O    -7.629732    -4.098520    -3.906110
H    -7.109165    -4.542284    -4.607654
H     0.038086     6.152782     10.772435
O    -0.827080     6.482509     10.525000
H    -0.712313     6.911950     9.658017
H     2.588909     1.489712    -4.097510
O     3.467283     1.843390    -3.859985
H     3.788449     1.329933    -3.088850
H    -6.963471    -0.204469     7.240160
O    -7.471195     0.575282     7.517826
H    -8.096244     0.755681     6.814624
H    -2.735627    -9.874481    -0.793841
O    -2.674797    -8.933836    -0.960337
H    -3.579492    -8.567089    -0.717031
H    -10.070626     3.064619    -4.882050
O    -10.186936     2.147658    -4.599378
H    -10.402053     2.233404    -3.649679
H    -2.165624    -2.944280     4.622738
O    -2.956830    -3.510938     4.738079
H    -2.931756    -4.047851     3.910983
H    -0.165563    -8.053432     2.430027
O     0.670477    -7.868399     2.876935
H     1.370117    -8.124173     2.244543
H     6.716463    -2.359369     6.405694
O     7.164128    -3.070126     5.942236
H     6.535259    -3.805930     5.906407
H    -5.261275    -1.991814     6.968739
O    -5.934968    -1.492344     6.483218
H    -5.923535    -1.873230     5.576223
H     0.832502     3.020244    -7.108187
O     1.750177     2.689610    -7.164327
H     1.736110     1.940797    -7.788654
H    -3.948993     8.771326     6.671921
O    -3.947304     8.766987     5.714568
H    -4.072989     7.838968     5.448884
H    -2.062009     10.309829    -2.743136
O    -2.964149     10.490270    -3.044148
H    -2.893748     11.122730    -3.758514
H     9.419707    -4.049049     4.057242
O     9.139879    -4.725635     4.681410
H     8.712051    -4.251783     5.405454
H    -0.734434    -6.007414    -5.814837
O    -0.030598    -6.573042    -5.480705
H     0.804703    -6.112119    -5.699983
H     1.827173     8.279084     0.659366
O     1.522782     8.598849    -0.218520
H     2.336836     8.636156    -0.750027
H     3.495045     2.919023    -6.658167
O     4.323201     2.630219    -6.249001
H     4.078943     2.358107    -5.339408
H     3.733491     7.125301    -1.234406
O     3.938753     8.060651    -1.449892
H     4.307084     8.002867    -2.343489
H     4.391666    -0.020578    -7.902452
O     4.769463     0.127840    -7.033696
H     4.587663     1.060226    -6.792110
H     6.033228     1.935504    -0.471441
O     6.597839     2.127341    -1.234000
H     7.422708     1.648142    -1.040044
H     6.689371    -8.430660    -1.583384
O     7.324998    -8.221142    -2.320759
H     7.691551    -9.055944    -2.607231
H    -5.300936    -5.799348    -5.377451
O    -5.918556    -5.127962    -5.692751
H    -5.367731    -4.360378    -5.932102
H     0.690396     7.191729     7.599433
O    -0.210835     7.218938     7.959703
H    -0.767152     7.232378     7.142755
H    -8.897045    -2.842921    -4.074527
O    -9.417148    -2.033934    -3.908021
H    -9.132308    -1.370715    -4.540442
H    -2.407291    -5.992242    -2.115248
O    -3.284728    -5.704462    -2.384779
H    -3.473135    -6.082772    -3.268717
H    -2.985839    -5.910521    -5.381255
O    -3.585415    -6.518973    -4.907126
H    -3.103312    -7.338876    -4.738548
H    -1.394679     3.714048    -6.975916
O    -0.853976     2.959072    -6.703767
H    -1.090992     2.172669    -7.251918
H    -0.208278     0.402646    -8.203437
O    -1.103978     0.638494    -7.919430
H    -1.278426     0.116129    -7.120543
H    -10.423456     4.046406    -2.719441
O    -10.489961     3.268997    -2.149466
H    -9.660131     3.244061    -1.641385
H     4.583762     4.087284     1.721456
O     4.376725     3.166660     2.002413
H     5.092466     2.590796     1.720715
H     6.484922     1.393280    -4.215197
O     6.182657     0.770685    -3.519481
H     6.214418     1.267995    -2.676870
H     9.636491    -2.223516    -0.920575
O     9.912273    -2.010026    -1.820806
H     9.111194    -1.673232    -2.264384
H     9.971368    -3.322331    -3.087958
O     9.703686    -3.975839    -3.761138
H     9.309234    -3.469985    -4.482211
H    -7.693448    -8.578542    -1.627831
O    -6.956749    -7.983548    -1.759666
H    -7.335002    -7.071023    -1.750099
H     4.158662     6.076523    -3.823948
O     4.819490     6.778208    -3.740570
H     5.656098     6.324881    -3.603497
H     0.098925    -8.179311    -5.185569
O     0.123271    -9.161829    -5.051918
H     0.273254    -9.527380    -5.923803
H    -2.329614    -8.677665    -2.682809
O    -2.096100    -8.415193    -3.593168
H    -1.450177    -9.034864    -3.950978
H     2.186876    -10.821113    -3.460950
O     2.142004    -9.866380    -3.441231
H     1.354977    -9.597280    -3.965776
H     6.833987     3.325432    -4.574573
O     6.891622     2.645598    -5.273836
H     6.097705     2.777323    -5.814241
H    -3.681189    -3.565237     7.877849
O    -3.708695    -2.858440     7.233215
H    -3.495556    -3.253742     6.359899
H    -0.639351    -3.374300    -6.703601
O    -0.009461    -2.642519    -6.713285
H    -0.491310    -1.866607    -6.372981
H     0.655603     0.477492     8.763530
O     0.659426    -0.235978     8.121370
H    -0.263430    -0.524924     8.039994
H    -5.837388     7.360094    -4.247751
O    -6.340525     6.739797    -4.806973
H    -6.626801     6.010110    -4.213963
H    -4.281738     9.097870    -3.264670
O    -4.816901     8.301671    -3.156137
H    -4.407568     7.823947    -2.416622
H    -9.714844     5.786902    -4.635118
O    -10.247659     4.982353    -4.469226
H    -11.128618     5.182060    -4.787808
H     2.775691     6.531750     6.137622
O     1.815651     6.627882     6.236359
H     1.472236     5.714411     6.135780
H     4.804220     8.551478     0.075363
O     5.122273     8.554170     0.996086
H     5.530183     7.690527     1.128160
H     4.144789    -7.431696    -4.318089
O     3.386370    -7.717447    -4.859331
H     3.106491    -8.557803    -4.481427
H     0.381393     8.671254     4.229375
O     1.058926     8.026164     4.002001
H     1.286582     7.535467     4.817570
H     5.234391     4.188759    -3.157975
O     6.195896     4.159416    -3.105897
H     6.405818     3.579482    -2.357202
H    -2.567379    -1.530648     7.595181
O    -2.057439    -0.734448     7.804872
H    -2.680280    -0.109020     8.185245
H    -9.031325     7.928343    -4.140785
O    -8.968670     7.341866    -4.896143
H    -8.011670     7.178146    -5.032148
H     3.545400    -8.975683     1.115777
O     2.867512    -8.341586     1.354030
H     3.338927    -7.538158     1.641903
H     3.586682     8.179344     1.822415
O     2.796698     7.615497     1.937047
H     2.351061     7.853238     2.762891
N    -0.530872    -5.465063     5.736106
H    -1.254381    -4.849429     5.567289
H     0.259461    -4.904907     5.727139
