603

H     0.210888     3.027135    -0.673851
O     0.734990     2.358946    -1.165802
H     1.673373     2.488468    -0.890680
H    -0.067533    -1.306713     3.160283
O     0.324347    -0.606947     2.615336
H    -0.153983     0.206561     2.847092
H    -2.388451     2.404590    -0.534311
O    -2.178734     1.935214     0.290558
H    -2.192941     0.987088     0.066552
H    -4.654736     0.542187     2.182527
O    -4.971009    -0.391491     2.196176
H    -4.464775    -0.869302     1.530951
H     0.074358    -0.310794     0.959607
O    -0.123787    -0.074640     0.032719
H     0.217021     0.821316    -0.088751
H    -0.143859    -3.576088     3.789755
O    -0.424951    -2.746375     4.209360
H     0.220450    -2.573408     4.911246
H    -4.878885     2.524537     1.328146
O    -4.239988     2.116180     1.944280
H    -3.396506     2.098618     1.432622
H    -3.237636     3.889542    -2.212989
O    -2.499851     3.293481    -1.980389
H    -2.139794     3.005098    -2.839213
H    -0.112533    -3.808679     0.515110
O     0.226491    -2.990845     0.933122
H    -0.561282    -2.503907     1.243069
H    -2.368303    -1.541061     2.475737
O    -2.178186    -2.008187     1.635708
H    -2.435449    -1.422003     0.905019
H     2.083416    -1.444461    -1.108164
O     2.310369    -1.692886    -0.188621
H     1.522311    -2.124028     0.193012
H    -1.383384     1.822040     1.915580
O    -1.476527     1.425303     2.791890
H    -1.463153     2.138295     3.456147
H     0.224877    -2.707308    -1.559375
O    -0.531635    -2.097032    -1.615003
H    -0.353887    -1.369491    -0.981858
H    -3.422138    -2.932317    -0.385064
O    -2.703648    -3.424277    -0.803868
H    -1.993973    -2.793069    -1.022179
H     2.780406     0.130362     2.944781
O     2.877333    -0.050998     3.907122
H     2.967279     0.842403     4.310676
H    -3.522927     6.373394    -0.547343
O    -3.284256     7.035535    -1.247887
H    -3.143764     7.881185    -0.778209
H     3.911797     0.584032     1.198197
O     2.960978     0.403335     1.314127
H     2.723926    -0.349860     0.735402
H    -5.768554     0.832894    -1.605990
O    -4.858574     1.161101    -1.478883
H    -4.970890     1.990027    -0.968422
H    -1.208408     5.395237     2.210184
O    -1.832588     4.647432     2.093548
H    -1.911070     4.229512     2.956357
H     3.501630     2.762252     0.434446
O     3.254716     2.718377    -0.504887
H     3.589178     1.875891    -0.854160
H     1.515142    -4.699217    -2.240147
O     1.575818    -3.921074    -1.667228
H     2.373747    -3.461118    -2.008812
H    -0.906562    -0.091763    -2.541719
O    -0.272093     0.560379    -2.865827
H    -0.013394     1.144144    -2.129396
H     1.716766    -4.685019    -0.166421
O     1.828312    -5.323313     0.574268
H     1.366008    -6.135613     0.279143
H    -1.208304    -3.273147    -2.870600
O    -1.032979    -3.957011    -3.530343
H    -0.906342    -4.803445    -3.060383
H    -2.778920     3.308179     4.704666
O    -1.797637     3.306502     4.672053
H    -1.505533     2.905668     5.508980
H     0.963065     5.036469     4.079213
O     0.016729     5.267953     4.130216
H    -0.454816     4.464503     4.388017
H    -1.714254    -4.656147    -0.361760
O    -0.948998    -5.195795    -0.074855
H    -1.296813    -5.882460     0.503437
H    -3.908160     5.822954    -2.602228
O    -4.257900     4.988311    -2.931705
H    -4.101482     4.952558    -3.899605
H    -2.418863    -3.692589     1.944247
O    -2.436604    -4.596514     2.320892
H    -1.496806    -4.833305     2.462670
H    -4.677857    -2.990079    -2.894445
O    -3.824797    -3.222640    -3.299387
H    -3.493621    -4.015394    -2.832781
H     0.342995     1.378763     4.621361
O     0.848328     2.139181     4.287414
H     0.896010     2.798772     4.993746
H    -4.637317    -5.179080    -1.564375
O    -5.340362    -4.825738    -0.992023
H    -5.128050    -5.178803    -0.107169
H     2.348615    -6.486310    -4.022379
O     2.010215    -6.155962    -3.169860
H     2.445055    -6.730007    -2.506400
H     0.487200    -3.386667    -3.993498
O     1.290420    -3.018913    -4.415167
H     0.972013    -2.648578    -5.264660
H     1.973374    -1.751863     2.993732
O     2.127845    -2.683300     2.778406
H     1.443629    -2.897054     2.110000
H    -2.998056    -1.818218    -3.204569
O    -2.576767    -0.931301    -3.139933
H    -3.232404    -0.286582    -3.461080
H    -3.185311     4.970850     1.077591
O    -3.966763     5.343183     0.621729
H    -4.383335     5.901360     1.326789
H     0.881781     2.253576     2.596971
O     0.983943     2.247912     1.625941
H     1.712031     1.625404     1.463517
H     0.197213     5.652974    -0.756733
O     0.718722     6.314901    -1.265663
H     0.859469     7.115334    -0.710508
H     0.344516     7.035785     2.591178
O    -0.016382     6.654149     1.773806
H     0.648505     5.983823     1.513816
H    -2.473830     0.213410     3.344853
O    -2.695531    -0.600285     3.850437
H    -1.935649    -0.638350     4.473051
H    -0.891411     0.556116     6.030930
O    -0.616091     0.035853     5.257519
H     0.097787    -0.566467     5.545648
H     0.724087    -4.994401     1.992799
O     0.181212    -5.104518     2.796530
H     0.325323    -6.025156     3.068882
H    -2.100931    -8.092935     0.461523
O    -1.780442    -7.604227     1.247107
H    -2.567875    -7.292520     1.700868
H    -0.371712     6.857852    -2.325816
O    -1.117962     7.276689    -2.826367
H    -1.908461     7.150107    -2.263539
H    -1.107184     4.305987     0.575225
O    -0.733312     4.366668    -0.320480
H    -1.438838     4.123180    -0.953463
H    -4.405577     2.744096     3.505714
O    -4.405672     2.915492     4.470152
H    -4.488600     2.032759     4.879991
H     2.033027    -3.579697     4.257098
O     1.969389    -4.051811     5.110698
H     2.474518    -3.513527     5.741593
H     4.721943    -3.193104     0.835379
O     4.536892    -3.108672    -0.122879
H     3.674366    -2.638467    -0.188299
H    -2.709424    -0.755218    -1.347205
O    -3.038392    -0.484999    -0.473435
H    -3.838848     0.040215    -0.681841
H    -1.599168    -0.770132    -4.625300
O    -1.091401    -0.554668    -5.428814
H    -0.382407     0.042718    -5.143325
H     1.810125    -1.722116    -3.367381
O     1.903603    -0.975031    -2.744603
H     1.126345    -0.397729    -2.875977
H     3.675110    -3.118349     2.560257
O     4.634358    -3.346209     2.496191
H     4.689195    -4.304658     2.626511
H     3.425481    -6.122018     3.147944
O     3.785785    -5.926827     2.247877
H     3.055651    -5.576216     1.697933
H    -3.329035     1.600649    -4.176380
O    -4.174000     1.129785    -3.986366
H    -4.392696     1.276078    -3.030064
H    -5.075374     4.140271     0.063025
O    -5.513188     3.273766    -0.039849
H    -6.443305     3.391941    -0.322929
H     6.750796    -1.183392    -1.336231
O     5.967426    -1.039353    -0.799902
H     5.559182    -1.911455    -0.586247
H     4.624690    -3.191075    -2.419988
O     3.775747    -3.004994    -2.857684
H     3.777671    -3.624421    -3.615735
H     4.439965    -2.288046     5.636456
O     4.096765    -2.752663     6.430292
H     4.431911    -3.657822     6.350616
H    -0.755120     6.339292     5.074844
O    -1.352946     6.915257     5.611602
H    -1.366623     7.791788     5.169087
H     4.710077    -0.139733    -1.451521
O     3.944253     0.403713    -1.718022
H     3.252056    -0.197720    -2.046449
H    -0.730797     4.515225    -4.035677
O    -1.513645     5.057450    -4.245410
H    -1.363447     5.924677    -3.823591
H     0.670870     3.198079    -2.653356
O     0.678636     3.573747    -3.562355
H     0.727592     2.809615    -4.146840
H    -5.370991    -5.199103     1.800225
O    -4.673403    -5.793863     1.446753
H    -3.833535    -5.376870     1.717681
H     7.891714    -1.698481    -4.016769
O     7.622747    -1.398239    -3.115567
H     7.145433    -0.548500    -3.268389
H     3.712689    -5.067404    -5.284859
O     4.469400    -4.708656    -4.784893
H     4.827272    -5.438090    -4.236343
H    -3.779913     0.017234     4.937226
O    -4.381656     0.481437     5.568858
H    -5.041856    -0.176767     5.860369
H     3.421634    -5.807556    -0.623158
O     4.243657    -5.544163    -1.049711
H     4.378899    -4.611583    -0.774733
H     5.017219    -0.338596    -4.147359
O     4.482884    -1.052235    -4.534856
H     4.161002    -1.633705    -3.814330
H    -1.158283     1.563221    -3.932451
O    -1.808891     2.182831    -4.319495
H    -1.450676     2.513849    -5.165778
H     5.033050    -6.277001    -2.426565
O     5.367573    -6.679715    -3.254979
H     6.309269    -6.483093    -3.346425
H     8.694132    -4.849252    -3.697537
O     8.008864    -5.466652    -3.341235
H     8.436942    -5.843921    -2.550657
H     2.344195     4.718360     0.456542
O     1.763954     4.700857     1.226982
H     1.407399     3.780238     1.305293
H    -4.408219    -2.636481     4.236115
O    -5.302262    -2.297947     4.032378
H    -5.165374    -1.517394     3.456017
H    -5.834887    -3.202197     1.320992
O    -6.298002    -3.758864     1.989489
H    -6.110910    -3.322218     2.839726
H     1.685733     3.474175     6.867940
O     1.062868     3.988538     6.332870
H     0.279147     4.141639     6.903394
H     5.007713    -2.165503     3.631224
O     5.027569    -1.447092     4.296037
H     4.216069    -0.891084     4.137351
H     2.397472    -5.571731     4.856404
O     2.777071    -6.457562     4.600210
H     2.031913    -7.038462     4.424359
H     2.273976    -4.521892    -6.780012
O     2.102812    -5.011017    -5.965313
H     1.840538    -4.321057    -5.307915
H     6.803928    -4.077832    -0.858979
O     7.162431    -4.409862     0.003956
H     7.887337    -5.009238    -0.245431
H    -1.727875     4.493917     7.701253
O    -0.829641     4.593273     8.087803
H    -0.649487     5.552613     8.111024
H    -5.106454     5.680133    -5.601721
O    -4.498242     4.917105    -5.620403
H    -3.740449     5.131456    -6.185698
H     3.306355    -2.538432    -8.421832
O     3.216741    -3.069214    -7.619565
H     4.093047    -3.047030    -7.189506
H    -0.654573     8.820540    -2.282017
O    -0.532835     9.649846    -1.764161
H     0.228904     9.476730    -1.186293
H     2.070869    -0.909112     5.221707
O     1.498130    -1.434796     5.809507
H     1.590792    -1.088000     6.706261
H     5.224645    -2.036882    -5.674165
O     5.572357    -2.803273    -6.193988
H     5.303225    -3.593674    -5.674861
H     5.698309    -5.204491     4.713245
O     5.176250    -5.127687     5.540208
H     4.453596    -5.757506     5.448511
H    -3.973536     1.147829     7.008259
O    -3.782855     1.624733     7.851820
H    -4.659565     2.010004     8.111077
H    -1.848300     9.609240    -0.751880
O    -2.709147     9.482812    -0.278142
H    -3.320481     10.110054    -0.667775
H    -5.938827     4.678401    -2.943896
O    -6.847011     4.558136    -3.288990
H    -6.755150     3.854918    -3.965032
H     0.113209    -7.069306    -1.127355
O     0.575846    -7.503120    -0.377533
H    -0.104774    -7.697910     0.269743
H    -7.628364     3.779813    -1.979848
O    -7.890218     3.193576    -1.239365
H    -7.745881     2.284575    -1.577568
H     3.975947    -0.884870     6.998804
O     3.984156     0.079289     6.989907
H     4.795973     0.369656     6.557645
H     2.264769     5.793082    -1.176744
O     3.200491     5.501625    -1.061076
H     3.378572     4.960440    -1.853237
H     6.279570    -5.847381     0.677966
O     6.064077    -6.599321     1.273376
H     5.169448    -6.361002     1.597204
H    -3.871790     4.732214     7.777932
O    -3.303943     4.269060     7.120259
H    -3.496777     3.325623     7.231546
H     5.490623    -7.950030     0.268009
O     5.210651    -8.741060    -0.245246
H     4.484110    -8.413172    -0.816981
H    -0.558410     2.047205     7.697566
O    -1.190790     1.981095     6.961915
H    -2.059608     1.839354     7.357676
H    -6.374128    -0.128147     1.062414
O    -6.693300    -0.213230     0.149293
H    -7.611866    -0.484623     0.166651
H    -5.359080    -3.071905    -0.583690
O    -5.108271    -2.368953     0.041800
H    -5.678511    -1.596620    -0.147382
H     4.322565     5.578083     0.325761
O     4.655253     5.680429     1.231222
H     3.959619     6.190446     1.681987
H    -9.030425    -1.757612    -2.254162
O    -8.483676    -1.554713    -1.467719
H    -8.610943    -2.290766    -0.829364
H    -5.511418     3.457039    -5.530764
O    -6.028604     2.746467    -5.115688
H    -5.361949     2.162093    -4.700470
H     3.197754    -0.896476    -5.642687
O     2.342479    -1.017890    -6.109205
H     2.430095    -1.867169    -6.581990
H     8.117462    -1.331585    -6.028107
O     8.141360    -2.191684    -5.564023
H     7.293894    -2.614775    -5.805508
H     7.633290     0.990941    -6.297163
O     7.445337     0.145231    -6.716158
H     6.463804     0.090741    -6.748848
H    -7.849131    -3.700599     0.932861
O    -8.526989    -3.595182     0.247705
H    -8.427376    -4.355201    -0.353014
H    -2.406375     8.733578     1.286952
O    -2.255869     8.146181     2.040940
H    -1.485044     7.593375     1.819632
H    -4.443484     6.433585     3.491341
O    -4.613252     6.858369     2.634147
H    -3.850154     7.444736     2.494527
H     3.411840     3.441260    -3.570267
O     3.257303     4.410500    -3.478517
H     2.292480     4.473981    -3.587284
H    -6.101066    -1.617390    -3.439688
O    -6.184453    -2.195756    -2.655092
H    -6.969156    -1.888428    -2.147679
H     6.470700     1.057216     4.752740
O     6.075981     1.596315     5.455218
H     6.263141     2.514776     5.163020
H     1.376170     1.712579    -5.815848
O     1.181253     1.117547    -5.061094
H     1.546194     0.254527    -5.329177
H    -2.494153     2.971540     10.484838
O    -2.281030     2.063685     10.213090
H    -2.877574     1.862700     9.480121
H     7.633063    -0.488752     3.099775
O     6.882061     0.085700     3.268742
H     6.190422    -0.516211     3.646427
H    -5.642683    -8.062374    -0.689808
O    -4.908635    -8.129750    -0.042356
H    -4.913495    -7.311662     0.478341
H    -5.162733    -0.131336    -4.713390
O    -5.778986    -0.843918    -4.952947
H    -6.617259    -0.403193    -5.152576
H     1.907892    -0.210037    -7.505061
O     1.706809     0.260638    -8.349747
H     2.284414    -0.145104    -9.001731
H     4.892918    -1.405636    -9.289078
O     3.968263    -1.176473    -9.572922
H     3.948975    -1.296867    -10.521658
H     7.568733    -2.559520     4.228040
O     7.728130    -2.591257     3.270641
H     7.227611    -3.372819     2.985437
H     6.737776    -5.810891     2.727458
O     6.815410    -5.144044     3.437014
H     7.674697    -5.268666     3.883322
H    -1.822665     8.947787     3.491258
O    -1.576380     9.253901     4.389525
H    -2.425861     9.386158     4.843777
H    -7.376253     1.552746    -5.253311
O    -7.950741     0.808425    -5.007995
H    -8.852874     1.207361    -4.933528
H     6.944795    -1.093416    -8.388047
O     6.363324    -1.815452    -8.649844
H     6.137459    -2.265970    -7.817642
H    -1.664564     6.228274    -7.024727
O    -2.062188     5.403102    -6.750506
H    -1.814555     5.273610    -5.786451
H    -0.002643     3.319417     9.026649
O     0.194800     2.400171     9.283344
H    -0.604025     2.136082     9.789048
H     6.809332    -2.710679    -2.665221
O     6.357908    -3.535156    -2.374519
H     6.831429    -4.248574    -2.857916
H    -4.060454    -3.084929    -4.936613
O    -4.213838    -2.973649    -5.901697
H    -4.761722    -2.181150    -5.959449
H     1.978172     2.192949     8.472414
O     2.642679     2.305151     7.782958
H     3.065758     1.435146     7.668922
H    -6.892969    -5.211284    -1.388948
O    -7.808087    -5.481844    -1.635118
H    -7.941021    -5.080545    -2.518762
H    -3.828521     5.258038     5.693799
O    -3.795804     6.025797     5.102132
H    -2.862143     6.321000     5.196760
H    -7.873695     0.076869    -1.967457
O    -7.384104     0.800353    -2.381405
H    -7.611249     0.787846    -3.334896
H     5.845437     0.127224     0.424340
O     5.623584     0.851275     1.042928
H     6.133087     0.658686     1.856837
H    -6.216778     3.313723     7.392823
O    -6.089503     2.796675     8.222329
H    -6.689058     2.034762     8.134319
H     2.296403    -8.072616    -0.824303
O     2.969335    -8.059195    -1.524155
H     2.747417    -8.776891    -2.133719
H    -2.725783    -3.974020    -6.187236
O    -1.972070    -4.539493    -5.953950
H    -1.696598    -4.246663    -5.056959
H    -5.643456     3.761656     5.305946
O    -6.293445     4.158545     5.922027
H    -6.130601     5.102700     5.907437
H    -0.998973    -7.121686    -3.147580
O    -0.528149    -6.451008    -2.619269
H     0.380277    -6.381371    -2.998715
H     4.446539     2.023761     5.138861
O     3.504887     2.262505     5.017701
H     3.119757     2.279433     5.899181
H     4.108127     4.665798     6.307385
O     4.188778     5.395461     5.688707
H     3.622314     5.153358     4.917420
H     2.767037     3.622041     3.929090
O     2.588732     4.561764     3.761719
H     2.470246     4.658881     2.795011
H     9.406512     0.220177    -1.057776
O     8.594418     0.383859    -0.575983
H     8.423887    -0.427683    -0.064558
H    -2.107708     5.331207     10.649429
O    -2.829376     4.702326     10.880987
H    -3.049018     4.880948     11.795582
H     7.894320    -2.877763     0.465179
O     8.404402    -2.083127     0.732880
H     8.311881    -2.095214     1.699035
H     5.373591     3.670617     3.534114
O     6.028563     3.937655     4.200994
H     5.614659     4.656256     4.700861
H    -4.214651     5.030408     9.781707
O    -4.847202     5.179891     9.058917
H    -5.458340     4.430677     9.056750
H    -6.995333    -3.490220    -3.480540
O    -7.614912    -4.103170    -3.928747
H    -7.092725    -4.545745    -4.629818
H     0.019916     6.141482     10.770828
O    -0.844670     6.471960     10.522343
H    -0.728397     6.901160     9.655396
H     2.602256     1.489274    -4.096126
O     3.480259     1.842836    -3.857470
H     3.800000     1.329275    -3.085509
H    -6.971331    -0.215883     7.220305
O    -7.480904     0.562513     7.499169
H    -8.103299     0.744664     6.794044
H    -2.725452    -9.879124    -0.811678
O    -2.662540    -8.937558    -0.972002
H    -3.568997    -8.571367    -0.733239
H    -10.056561     3.059938    -4.905081
O    -10.173390     2.142787    -4.623239
H    -10.390007     2.227985    -3.673798
H    -2.061390    -3.022020     4.623938
O    -2.936003    -3.462794     4.693346
H    -2.928667    -4.081390     3.937717
H    -0.167276    -7.981190     2.504783
O     0.658717    -7.770507     2.953394
H     1.376956    -8.067389     2.367377
H     6.711294    -2.363952     6.409194
O     7.160822    -3.077689     5.951815
H     6.528501    -3.810286     5.913662
H    -5.269298    -1.999586     6.948749
O    -5.945628    -1.502848     6.463490
H    -5.927984    -1.880943     5.554766
H     0.850622     3.021088    -7.109867
O     1.768570     2.691011    -7.164817
H     1.755886     1.942365    -7.789337
H    -3.959637     8.761025     6.664695
O    -3.956946     8.757586     5.707332
H    -4.080956     7.829530     5.440764
H    -2.055431     10.306640    -2.745482
O    -2.956939     10.487319    -3.048306
H    -2.884989     11.120116    -3.762215
H     9.422885    -4.046303     4.065074
O     9.141856    -4.730188     4.681098
H     8.710496    -4.262166     5.407231
H    -0.715786    -6.008227    -5.825241
O    -0.012627    -6.573776    -5.489560
H     0.822885    -6.112513    -5.707865
H     1.827709     8.275394     0.662875
O     1.525029     8.595910    -0.215390
H     2.340148     8.633491    -0.745227
H     3.512210     2.920650    -6.654653
O     4.339656     2.631455    -6.244347
H     4.093922     2.359016    -5.335168
H     3.738313     7.123713    -1.227860
O     3.943631     8.059303    -1.442524
H     4.313774     8.002026    -2.335395
H     4.412596    -0.018275    -7.899291
O     4.787754     0.130146    -7.029400
H     4.604881     1.062458    -6.787938
H     6.038856     1.932739    -0.464482
O     6.603559     2.127976    -1.226210
H     7.428675     1.648277    -1.032856
H     6.659450    -8.803252    -1.117412
O     7.564907    -8.736050    -1.528845
H     7.991174    -9.570215    -1.315034
H    -5.282542    -5.801358    -5.397165
O    -5.899978    -5.130268    -5.713409
H    -5.349104    -4.362016    -5.950721
H     0.678226     7.182580     7.600025
O    -0.223686     7.210072     7.958646
H    -0.778373     7.223127     7.140552
H    -8.882092    -2.847495    -4.099451
O    -9.403374    -2.039146    -3.933673
H    -9.117127    -1.374944    -4.564437
H    -2.393769    -5.995114    -2.130256
O    -3.272085    -5.709861    -2.399568
H    -3.458300    -6.085716    -3.285048
H    -2.967797    -5.911263    -5.396335
O    -3.567810    -6.520788    -4.923903
H    -3.085403    -7.340485    -4.755670
H    -1.377117     3.714064    -6.981406
O    -0.836486     2.959133    -6.709012
H    -1.072307     2.172977    -7.257969
H    -0.186828     0.403869    -8.208742
O    -1.083300     0.638958    -7.926543
H    -1.258821     0.116398    -7.127988
H    -10.414022     4.040214    -2.742470
O    -10.481525     3.262348    -2.173255
H    -9.652461     3.237096    -1.663783
H     4.585241     4.083262     1.727372
O     4.377470     3.162679     2.007367
H     5.093435     2.586571     1.726676
H     6.500030     1.392228    -4.205082
O     6.198142     0.767999    -3.511028
H     6.225662     1.265069    -2.667902
H     9.693456    -2.074116    -0.905305
O     9.929987    -1.768739    -1.797591
H     9.065881    -1.552426    -2.203555
H     10.061749    -3.063972    -3.276423
O     9.902233    -3.645805    -4.044041
H     9.470384    -3.079473    -4.704845
H    -7.681772    -8.584130    -1.654092
O    -6.944150    -7.989520    -1.782410
H    -7.322362    -7.076706    -1.774379
H     4.169084     6.076607    -3.817034
O     4.829503     6.778569    -3.732594
H     5.665891     6.325467    -3.593377
H     0.117427    -8.179266    -5.196828
O     0.140405    -9.162221    -5.064488
H     0.294289    -9.526286    -5.936327
H    -2.314105    -8.680935    -2.698313
O    -2.080758    -8.418202    -3.608194
H    -1.433054    -9.036104    -3.966040
H     2.203069    -10.822528    -3.475562
O     2.151938    -9.868496    -3.446582
H     1.368144    -9.598463    -3.975479
H     6.847247     3.326149    -4.563732
O     6.906461     2.647289    -5.263905
H     6.113365     2.779471    -5.805374
H    -3.560495    -3.716306     7.730396
O    -3.674923    -2.929308     7.199189
H    -3.422513    -3.169293     6.281415
H    -0.618772    -3.374010    -6.712328
O     0.010947    -2.642139    -6.719731
H    -0.471871    -1.866534    -6.379999
H     0.641496     0.471923     8.760322
O     0.650239    -0.244346     8.121404
H    -0.271811    -0.533562     8.032878
H    -5.826492     7.356580    -4.259474
O    -6.328463     6.736638    -4.820162
H    -6.615281     6.006197    -4.228273
H    -4.273381     9.094264    -3.272246
O    -4.808655     8.297933    -3.165293
H    -4.400480     7.819636    -2.425451
H    -9.702306     5.782265    -4.655683
O    -10.235237     4.977425    -4.491537
H    -11.115657     5.177162    -4.811558
H     2.766397     6.524441     6.141944
O     1.806146     6.620497     6.238957
H     1.463302     5.706806     6.137220
H     4.805882     8.549292     0.084886
O     5.122558     8.551844     1.006077
H     5.529808     7.687941     1.138684
H     4.159289    -7.444955    -4.337904
O     3.392893    -7.718443    -4.868752
H     3.114480    -8.559423    -4.491205
H     0.375029     8.664306     4.230745
O     1.053661     8.020094     4.004212
H     1.279680     7.528429     4.819716
H     5.244617     4.188552    -3.150215
O     6.206035     4.159546    -3.096627
H     6.414600     3.578719    -2.348037
H    -2.575463    -1.537600     7.580694
O    -2.065838    -0.743861     7.800503
H    -2.692509    -0.117333     8.172788
H    -9.020825     7.923406    -4.158379
O    -8.956425     7.337793    -4.914264
H    -7.999046     7.174298    -5.048190
H     3.544148    -8.974912     1.098095
O     2.865242    -8.353394     1.365287
H     3.333650    -7.541410     1.636274
H     3.585111     8.175641     1.829434
O     2.794864     7.611793     1.941771
H     2.347751     7.848269     2.767186
N     8.844389    -6.486858    -0.851055
H     9.758951    -6.667320    -0.620852
H     8.405084    -7.371387    -0.982520
