30
Coordinates from ORCA-job grain_mol_opt.QMRegion
  H   -0.94560607230070      0.57330066275944      5.99362208045930
  O   -0.66124220672467      0.05566891567331      5.22233243513652
  H   0.03795007901249     -0.56479433226108      5.50956839656001
  H   1.92805100203688     -3.74461617481434      4.12869061519184
  O   1.73266542739623     -4.19770520469935      4.97699770423679
  H   2.31031681750178     -3.73961005044702      5.61341255674938
  H   4.14743070122589     -2.51035817425271      5.82867441142682
  O   3.84596003381319     -3.17677180012000      6.47440984387915
  H   4.37003109703224     -3.97122323697503      6.24398940888936
  H   4.97831404325364     -2.24190979536683      3.64585063334033
  O   4.98700044113613     -1.55362495635893      4.34811046905647
  H   4.20100335255392     -0.97835727165034      4.16085544848959
  H   2.01145147261828     -0.86173766258793      5.07119829749667
  O   1.48691761137707     -1.38516937825144      5.71428634636687
  H   1.64215091863927     -0.97950819944360      6.57576674266992
  H   3.94865691692937     -0.28650925957150      7.62509164786239
  O   3.95862750991744      0.44296259696969      6.96745258316272
  H   4.87315790694182      0.62297371094248      6.70441298643555
  H   1.93666074386909      2.38728575607318      8.56279179417676
  O   2.67968880761025      2.62251757415574      7.99170983684345
  H   3.11784518911601      1.77878121029162      7.74055039517121
  H   6.57718308893908     -2.31124264109484      5.97921872841218
  O   7.16134809329843     -3.07150536911087      5.88637934577084
  H   6.55669003245814     -3.82566628160159      5.86029093368768
  H   0.58297460897250      0.39453106899630      8.77977282651782
  O   0.60470155443767     -0.45615075967208      8.32346557110336
  H   -0.33720614764489     -0.67880460075520      8.18463993152035
  O   3.40477517388131     -1.57149037056099      8.70711612008325
  H   3.51788164734652     -2.30720118563045      8.07578889638750
  H   2.44721883875808     -1.44537060833032      8.78380242337855
