36

H    -4.574964    -5.136037    -1.546906
O    -5.313888    -4.846900    -0.967902
H    -5.064481    -5.189982    -0.085972
H    -5.796861    -8.101616    -0.318056
O    -5.086290    -8.228296     0.341862
H    -4.994484    -7.368972     0.792958
H    -6.823918    -5.280708    -1.380261
O    -7.740290    -5.566188    -1.647373
H    -7.844809    -5.125341    -2.522254
H    -0.897841    -7.163193    -3.123590
O    -0.459405    -6.448263    -2.627726
H     0.445887    -6.352360    -3.019950
H    -6.963607    -3.436623    -3.471768
O    -7.563840    -4.078282    -3.922040
H    -7.042257    -4.407607    -4.686892
H    -2.685925    -9.787100    -0.590753
O    -2.796126    -8.863090    -0.829555
H    -3.701140    -8.625436    -0.483465
H    -5.340479    -5.690296    -5.693268
O    -5.946908    -4.985620    -5.963963
H    -5.340285    -4.230714    -6.122655
H    -2.397509    -5.821489    -2.246492
O    -3.316412    -5.684106    -2.513423
H    -3.403037    -5.987255    -3.446321
H    -2.928695    -5.817045    -5.565802
O    -3.511163    -6.463497    -5.110789
H    -2.937371    -7.239132    -4.941043
H    -7.605521    -8.648547    -1.728394
O    -6.871516    -8.031980    -1.798452
H    -7.294541    -7.116018    -1.805025
H    -2.821521    -8.756238    -3.405539
O    -2.046401    -8.367348    -3.857252
H    -1.521120    -9.073709    -4.252817
N    -4.778128    -9.008431    -3.496832
H    -5.040753    -8.699634    -4.369066
H    -5.457759    -8.631843    -2.904474
