33
Coordinates from ORCA-job grain_mol_opt.QMRegion
  H   6.64858137348341     -1.25792363501112     -1.38138201964736
  O   5.89782488553361     -1.06250157983809     -0.81372682272997
  H   5.44939781307717     -1.91894476630675     -0.61108259518956
  H   7.84274109223079     -1.75862552537482     -4.10594019160266
  O   7.66827941694222     -1.38854281264608     -3.20200210955760
  H   7.18498605073958     -0.54142723670921     -3.36482820181034
  H   8.15124357467394     -1.52007093613308     -6.11505516206664
  O   8.10387396752687     -2.36883204909899     -5.64358558364663
  H   7.20811474274480     -2.69213286803687     -5.88364148025845
  H   7.64397451558646      0.96459528404319     -6.79399622503948
  O   7.37039649348368      0.05089042582356     -6.91529722946255
  H   6.38257040443285      0.07621448907537     -6.86085996823844
  H   9.25079156215421      0.40855007182048     -0.99695324592088
  O   8.53374948656380      0.48687447359451     -0.35986685998333
  H   8.43214154269937     -0.41112184330892      0.00274683129479
  H   5.91836709500238      1.91673179310339     -0.43731341353535
  O   6.43594181200277      2.15117847063314     -1.22757029874688
  H   7.29102051620349      1.71332025001589     -1.03925016346908
  H   6.33833241520490      1.43300356056189     -4.24108807814896
  O   6.16255868899355      0.75304579853884     -3.56107087649556
  H   6.05823308495614      1.23654569450427     -2.71098093329411
  H   9.65645058825879     -2.26908332239216     -0.99659741630570
  O   9.97001693448280     -2.01425033146431     -1.87440408665096
  H   9.17283782222737     -1.63169561912431     -2.29994470570734
  H   6.60187049445477      3.45340231169189     -4.48919288040629
  O   6.81267615284516      2.83480625464644     -5.23245939502378
  H   6.03053674053579      2.91051029094943     -5.80525660789500
  H   5.08446827637678      4.29823072947541     -3.13516051603228
  O   6.04749600621380      4.27834418465661     -3.03890723152937
  H   6.20211715284611      3.68863638191617     -2.27494939413385
  O   9.14928466095942      1.95115012667447     -3.09060428855371
  H   9.72067201549347      2.72335026977031     -3.06509059471557
  H   8.61397769407084      2.07889168251012     -3.88296511802509
