33
Coordinates from ORCA-job grain_mol_opt.QMRegion
  H   0.39158376161818     -3.31837761630771     -4.06481635827904
  O   1.29659682683632     -3.05972883667121     -4.33952971680772
  H   1.18889022107937     -2.43020925571706     -5.06955257905683
  H   -1.54951162477361     -0.82507918602639     -4.50922363500799
  O   -1.02611268995637     -0.64311068213590     -5.31500899190834
  H   -0.34847996826002     -0.00455709255390     -5.02670709850281
  H   2.24330683313311     -4.63734462961574     -6.79569659070003
  O   2.08930112476323     -5.07492232085658     -5.94841912143152
  H   1.79237799399641     -4.35057115552631     -5.34469760123645
  H   3.34723489951381     -2.62473012962375     -8.49611379995659
  O   3.24441745264407     -3.11352584952592     -7.65843374493510
  H   4.14025317498939     -3.10006359818297     -7.26642563983269
  H   3.19686758033589     -0.94329649034584     -5.57952566251515
  O   2.35206296793609     -1.12118518535311     -6.05826653868547
  H   2.58442367737584     -1.86195437854233     -6.66617496079660
  H   1.81699946138814     -0.16490352879076     -7.48003176541827
  O   1.34853943173333      0.25207853764012     -8.23378553775726
  H   1.32664589729063     -0.44479284721918     -8.91010828813063
  H   4.97945927391057     -1.41264834109533     -9.33786208829437
  O   4.03547721931703     -1.15490273585896     -9.49393943765335
  H   3.94968048757443     -1.07367229181883    -10.44697352443636
  H   -2.85341063294292     -3.98109761758141     -6.09642048616823
  O   -2.06441256161607     -4.52010038923722     -5.90706130375967
  H   -1.78766599050021     -4.24750496681369     -5.00058482444748
  H   -0.43804321363313      0.44660608232476     -8.00044523246530
  O   -1.38341639965575      0.65199710900965     -7.83166711376864
  H   -1.56427040547975      0.19704178697980     -6.99399463360795
  H   -0.78099705223817     -3.42909127077534     -6.76078715506949
  O   -0.14882170005262     -2.71335593007986     -6.94741025788964
  H   -0.51210414617704     -1.95864321564122     -6.44306735480516
  O   0.75906033213286     -2.17934810975356     -9.48005714813938
  H   0.34840571479475     -2.42419529274247     -8.61851189939959
  H   0.03128341673773     -2.18607210903505    -10.10697287179364
