21

H     4.207942     5.537164     0.289058
O     4.640994     5.693487     1.150067
H     3.977930     6.232667     1.631150
H     1.904735     8.377020     0.657863
O     1.544292     8.609792    -0.224090
H     2.322383     8.634060    -0.805179
H     3.748706     7.112728    -1.301550
O     3.984126     8.027636    -1.565529
H     4.303077     7.881631    -2.477167
H     5.499336     8.192047    -0.407955
O     6.109634     8.036467     0.338553
H     5.851610     7.141525     0.626146
H     0.349697     8.649359     4.272768
O     0.993979     7.963096     4.054131
H     1.212368     7.491551     4.886102
H     3.608808     8.379838     2.229001
O     2.882483     7.736287     2.057899
H     2.298193     7.809411     2.838413
N     5.027325     9.354282     2.431774
H     5.524263     9.083278     3.209321
H     5.524359     8.961442     1.666519
