603

H     0.216744     3.024572    -0.680231
O     0.741280     2.355595    -1.171000
H     1.679162     2.485166    -0.894815
H    -0.068406    -1.307945     3.155244
O     0.324977    -0.608688     2.610591
H    -0.153234     0.205201     2.841625
H    -2.382478     2.404154    -0.542802
O    -2.173055     1.934431     0.281986
H    -2.190020     0.986308     0.058266
H    -4.653116     0.544172     2.172122
O    -4.969819    -0.389332     2.185969
H    -4.463884    -0.867688     1.520955
H     0.076710    -0.312822     0.955023
O    -0.116775    -0.078121     0.026760
H     0.220507     0.819355    -0.093345
H    -0.147781    -3.577691     3.785697
O    -0.427622    -2.746690     4.203661
H     0.216313    -2.574928     4.907190
H    -4.874831     2.526507     1.316806
O    -4.236755     2.117707     1.933589
H    -3.392799     2.099711     1.422979
H    -3.228652     3.889327    -2.222791
O    -2.491671     3.292414    -1.989363
H    -2.131141     3.003945    -2.847912
H    -0.111515    -3.809931     0.511201
O     0.228067    -2.991622     0.927809
H    -0.559851    -2.504666     1.237734
H    -2.368413    -1.541053     2.468390
O    -2.176841    -2.008107     1.628531
H    -2.434333    -1.422281     0.897664
H     2.089455    -1.450263    -1.111567
O     2.320385    -1.703078    -0.194090
H     1.530064    -2.128923     0.189705
H    -1.380999     1.821678     1.908331
O    -1.474207     1.424833     2.784571
H    -1.461947     2.137952     3.448826
H     0.226646    -2.711318    -1.562013
O    -0.527795    -2.098920    -1.621233
H    -0.350756    -1.371930    -0.987287
H    -3.421101    -2.932508    -0.393383
O    -2.701940    -3.424511    -0.811165
H    -1.992106    -2.793348    -1.028603
H     2.779800     0.127428     2.942761
O     2.877179    -0.054204     3.904691
H     2.967154     0.839174     4.308779
H    -3.513758     6.373735    -0.558201
O    -3.273402     7.035278    -1.258661
H    -3.133148     7.881157    -0.789268
H     3.913840     0.580094     1.196910
O     2.963081     0.398113     1.310464
H     2.727337    -0.355074     0.731762
H    -5.762781     0.834515    -1.617887
O    -4.852614     1.161867    -1.489428
H    -4.965100     1.991159    -0.979508
H    -1.203021     5.394584     2.201982
O    -1.827171     4.646846     2.084666
H    -1.907474     4.229702     2.947691
H     3.506815     2.758741     0.432200
O     3.261381     2.713901    -0.507618
H     3.594918     1.870739    -0.855382
H     1.512172    -4.706434    -2.238071
O     1.574776    -3.927604    -1.666923
H     2.369710    -3.466300    -2.015569
H    -0.901327    -0.093700    -2.548571
O    -0.264550     0.556876    -2.871438
H    -0.007405     1.141347    -2.134957
H     1.714112    -4.691609    -0.166016
O     1.820656    -5.328184     0.576735
H     1.357138    -6.139524     0.281137
H    -1.206052    -3.275609    -2.876463
O    -1.027217    -3.959621    -3.535190
H    -0.905047    -4.806295    -3.064527
H    -2.777613     3.309416     4.695406
O    -1.796259     3.306498     4.663690
H    -1.505570     2.906126     5.501365
H     0.966180     5.034572     4.073616
O     0.019961     5.266627     4.122953
H    -0.452580     4.463832     4.380991
H    -1.714445    -4.656885    -0.367045
O    -0.949832    -5.197504    -0.080121
H    -1.298771    -5.883252     0.498692
H    -3.897591     5.822925    -2.613572
O    -4.247037     4.988091    -2.942875
H    -4.090385     4.952233    -3.910813
H    -2.420379    -3.692330     1.937510
O    -2.439468    -4.596288     2.313909
H    -1.500152    -4.833891     2.457721
H    -4.673860    -2.989094    -2.904266
O    -3.820155    -3.222775    -3.307447
H    -3.491290    -4.015980    -2.840081
H     0.342551     1.377692     4.615932
O     0.849833     2.137029     4.282356
H     0.896376     2.797282     4.988218
H    -4.636565    -5.178513    -1.572899
O    -5.339513    -4.824062    -1.001290
H    -5.128685    -5.177276    -0.116102
H     2.351763    -6.495376    -4.022839
O     2.013778    -6.162102    -3.171466
H     2.444157    -6.735856    -2.505297
H     0.491994    -3.392616    -3.993389
O     1.294285    -3.027090    -4.419529
H     0.969537    -2.657265    -5.267174
H     1.971503    -1.754569     2.991384
O     2.127717    -2.685534     2.774910
H     1.442833    -2.900117     2.107233
H    -2.993017    -1.818756    -3.212672
O    -2.570345    -0.932429    -3.148641
H    -3.225456    -0.286958    -3.469873
H    -3.179049     4.971317     1.067591
O    -3.959708     5.343964     0.610711
H    -4.376642     5.902811     1.315087
H     0.883805     2.251560     2.592138
O     0.987094     2.245326     1.621139
H     1.714719     1.622289     1.459748
H     0.206118     5.650352    -0.763319
O     0.729191     6.311279    -1.271867
H     0.869609     7.112173    -0.717169
H     0.350684     7.034112     2.584112
O    -0.009393     6.652331     1.766419
H     0.655375     5.981560     1.507548
H    -2.473716     0.213930     3.336842
O    -2.696218    -0.599757     3.842020
H    -1.937384    -0.637879     4.465905
H    -0.894038     0.556503     6.024349
O    -0.618045     0.035915     5.251307
H     0.094658    -0.567102     5.540746
H     0.720189    -4.997391     1.990834
O     0.176140    -5.105866     2.794114
H     0.320031    -6.026120     3.067867
H    -2.104981    -8.093603     0.455970
O    -1.783977    -7.604320     1.240929
H    -2.571170    -7.292825     1.695286
H    -0.360274     6.855088    -2.333605
O    -1.105594     7.274219    -2.835000
H    -1.896864     7.148707    -2.272967
H    -1.100734     4.304856     0.567383
O    -0.725746     4.364204    -0.327995
H    -1.431199     4.121913    -0.961561
H    -4.403708     2.746237     3.494991
O    -4.404198     2.917859     4.459326
H    -4.488624     2.035394     4.869448
H     2.028778    -3.582170     4.255848
O     1.963477    -4.053803     5.109230
H     2.468232    -3.515973     5.740770
H     4.700160    -3.199917     0.856019
O     4.542183    -3.125315    -0.111233
H     3.683271    -2.648124    -0.196554
H    -2.705475    -0.755682    -1.355648
O    -3.034505    -0.484780    -0.482166
H    -3.834823     0.040602    -0.691215
H    -1.591934    -0.773235    -4.632569
O    -1.080294    -0.561103    -5.434652
H    -0.374669     0.039974    -5.148850
H     1.814659    -1.725611    -3.368477
O     1.908453    -0.977127    -2.748146
H     1.130326    -0.400434    -2.878983
H     3.671659    -3.124297     2.565039
O     4.630797    -3.353631     2.493241
H     4.685273    -4.313387     2.623055
H     3.433708    -6.123209     3.141621
O     3.791418    -5.923595     2.241771
H     3.054959    -5.578646     1.697132
H    -3.320179     1.600043    -4.185586
O    -4.164825     1.128652    -3.995946
H    -4.385185     1.276207    -3.040204
H    -5.068916     4.141842     0.051070
O    -5.507000     3.275497    -0.051969
H    -6.436832     3.394129    -0.336124
H     6.752851    -1.190280    -1.341075
O     5.977034    -1.040131    -0.794597
H     5.558339    -1.907664    -0.595347
H     4.613526    -3.177530    -2.454254
O     3.748040    -3.005186    -2.875029
H     3.750933    -3.628893    -3.626591
H     4.436249    -2.292058     5.636990
O     4.091481    -2.756605     6.429837
H     4.426744    -3.661690     6.350358
H    -0.751950     6.339203     5.066719
O    -1.349870     6.915631     5.602716
H    -1.362509     7.792121     5.160012
H     4.715849    -0.144732    -1.452478
O     3.949719     0.397249    -1.719742
H     3.257020    -0.203523    -2.048589
H    -0.719143     4.512824    -4.043018
O    -1.501754     5.054932    -4.253269
H    -1.351621     5.922448    -3.832002
H     0.679642     3.194520    -2.658908
O     0.689842     3.570063    -3.567878
H     0.736912     2.806113    -4.152652
H    -5.373630    -5.196999     1.790799
O    -4.676070    -5.792213     1.437957
H    -3.836268    -5.375882     1.710025
H     7.908053    -1.699569    -4.010132
O     7.644178    -1.387298    -3.112538
H     7.158681    -0.542819    -3.270675
H     3.725927    -5.087183    -5.270329
O     4.491200    -4.713986    -4.793398
H     4.872460    -5.422604    -4.241449
H    -3.781873     0.019042     4.927909
O    -4.383739     0.484082     5.558582
H    -5.044731    -0.173447     5.849980
H     3.480013    -5.949676    -0.500668
O     4.351993    -5.701974    -0.820294
H     4.428581    -4.739933    -0.674911
H     5.025451    -0.344232    -4.143674
O     4.490382    -1.056615    -4.533840
H     4.161684    -1.639520    -3.815704
H    -1.148919     1.561076    -3.940169
O    -1.798811     2.180668    -4.327851
H    -1.440004     2.511661    -5.174118
H     4.903709    -6.331211    -2.294403
O     5.239547    -6.655157    -3.159385
H     6.055970    -7.138008    -2.970105
H     8.760737    -5.103387    -2.889776
O     8.066452    -5.519596    -2.334127
H     8.102258    -6.477351    -2.432747
H     2.350830     4.714532     0.452016
O     1.770192     4.697450     1.222134
H     1.412279     3.777450     1.300215
H    -4.411297    -2.634215     4.227053
O    -5.304817    -2.295161     4.022045
H    -5.166754    -1.514725     3.445854
H    -5.835272    -3.199585     1.310644
O    -6.299257    -3.755896     1.978712
H    -6.113061    -3.319118     2.829093
H     1.684536     3.472608     6.863363
O     1.062782     3.987142     6.327173
H     0.278606     4.141397     6.896911
H     5.006540    -2.169981     3.631990
O     5.025646    -1.450857     4.295062
H     4.213954    -0.894812     4.136248
H     2.393781    -5.575862     4.853354
O     2.774298    -6.460036     4.594966
H     2.029535    -7.041922     4.420919
H     2.216153    -4.583242    -6.691567
O     2.113764    -5.036616    -5.844640
H     1.846400    -4.315681    -5.214404
H     6.453392    -4.110915    -0.480777
O     7.206669    -4.512410    -0.016591
H     7.715228    -4.936539    -0.735607
H    -1.728895     4.495231     7.692801
O    -0.830737     4.593960     8.079735
H    -0.650084     5.553211     8.103414
H    -5.092762     5.679896    -5.614137
O    -4.484798     4.916591    -5.631337
H    -3.726758     5.129870    -6.196721
H     3.331549    -2.509467    -8.390488
O     3.239952    -3.180532    -7.679817
H     4.061590    -3.076685    -7.160687
H    -0.641501     8.818176    -2.290776
O    -0.519691     9.647354    -1.772835
H     0.241329     9.473946    -1.194184
H     2.068236    -0.910778     5.219783
O     1.494393    -1.436396     5.806355
H     1.585543    -1.089618     6.703320
H     5.232200    -2.042191    -5.545271
O     5.567260    -2.801071    -6.094413
H     5.312344    -3.600984    -5.573289
H     5.698318    -5.214540     4.707809
O     5.174342    -5.128147     5.533155
H     4.453173    -5.760510     5.447483
H    -3.976516     1.150620     6.998510
O    -3.786186     1.627727     7.841953
H    -4.662897     2.013763     8.100309
H    -1.836491     9.608208    -0.762060
O    -2.697867     9.482318    -0.289193
H    -3.308345     10.110078    -0.679357
H    -5.928552     4.679727    -2.956775
O    -6.836513     4.559960    -3.302528
H    -6.744685     3.856709    -3.978501
H     0.110153    -7.072031    -1.130772
O     0.573313    -7.506645    -0.381701
H    -0.107056    -7.701005     0.266100
H    -7.619920     3.782799    -1.994082
O    -7.882474     3.196845    -1.253598
H    -7.739002     2.287697    -1.591722
H     3.971289    -0.888334     6.998699
O     3.979760     0.075788     6.987639
H     4.793236     0.365100     6.557895
H     2.274109     5.788868    -1.181100
O     3.209485     5.496107    -1.064694
H     3.387612     4.955155    -1.856865
H     6.562040    -5.935308     0.697230
O     6.191959    -6.671164     1.230253
H     5.287404    -6.393364     1.456311
H    -3.872556     4.735168     7.767237
O    -3.304391     4.271351     7.110218
H    -3.498225     3.328134     7.221651
H     5.775298    -7.952007     0.163663
O     5.489386    -8.639378    -0.474478
H     4.660155    -8.315272    -0.869686
H    -0.561501     2.047661     7.691080
O    -1.193040     1.981606     6.954653
H    -2.062438     1.840864     7.349565
H    -6.372350    -0.125165     1.050717
O    -6.689877    -0.210858     0.137122
H    -7.608867    -0.480964     0.153019
H    -5.357696    -3.070235    -0.593573
O    -5.106172    -2.367156     0.031483
H    -5.676192    -1.594633    -0.157958
H     4.329671     5.572826     0.323289
O     4.661831     5.674342     1.229040
H     3.966672     6.185651     1.679227
H    -9.025785    -1.753569    -2.268535
O    -8.479357    -1.551192    -1.481678
H    -8.608394    -2.286748    -0.843135
H    -5.499477     3.457392    -5.543038
O    -6.017488     2.747301    -5.128099
H    -5.351798     2.162474    -4.712340
H     3.188797    -0.927595    -5.724225
O     2.294988    -1.066569    -6.089583
H     2.314551    -1.913706    -6.559663
H     8.140322    -1.361374    -6.006952
O     8.153776    -2.225781    -5.550538
H     7.297196    -2.627986    -5.793210
H     7.644868     0.969959    -6.296171
O     7.455812     0.120227    -6.706367
H     6.475585     0.075508    -6.755804
H    -7.849606    -3.696861     0.920633
O    -8.526312    -3.590803     0.234477
H    -8.427110    -4.351276    -0.365700
H    -2.397543     8.733561     1.276462
O    -2.248156     8.146171     2.030702
H    -1.477492     7.592881     1.810259
H    -4.438645     6.435727     3.479505
O    -4.607017     6.860143     2.621856
H    -3.843542     7.446184     2.483005
H     3.421636     3.434995    -3.573266
O     3.268408     4.404237    -3.482110
H     2.303689     4.469096    -3.591671
H    -6.095430    -1.616075    -3.451034
O    -6.179507    -2.194120    -2.666249
H    -6.964832    -1.886467    -2.159818
H     6.470753     1.051542     4.753806
O     6.075077     1.591106     5.455131
H     6.263289     2.509510     5.163262
H     1.387001     1.708029    -5.821336
O     1.191917     1.113296    -5.065645
H     1.554386     0.249814    -5.333257
H    -2.499144     2.974149     10.476173
O    -2.286231     2.066195     10.204546
H    -2.882522     1.865416     9.471330
H     7.633786    -0.499285     3.103152
O     6.883194     0.076714     3.268212
H     6.190127    -0.522593     3.647938
H    -5.644824    -8.060853    -0.698721
O    -4.910844    -8.128198    -0.051079
H    -4.916224    -7.310361     0.470017
H    -5.154632    -0.131277    -4.724344
O    -5.770904    -0.843706    -4.964095
H    -6.608732    -0.402572    -5.164875
H     1.916466    -0.215738    -7.513563
O     1.712794     0.259086    -8.353244
H     2.284591    -0.141552    -9.014777
H     4.817645    -1.339460    -9.302601
O     3.878773    -1.218370    -9.576138
H     3.812524    -1.821417    -10.328391
H     7.568095    -2.569834     4.221782
O     7.716531    -2.607675     3.262576
H     7.223922    -3.399316     2.991659
H     6.728281    -5.897293     2.710758
O     6.788203    -5.220112     3.409932
H     7.662945    -5.304266     3.830587
H    -1.815740     8.947963     3.481322
O    -1.569846     9.253868     4.379746
H    -2.419568     9.387293     4.833220
H    -7.366221     1.554327    -5.267038
O    -7.941245     0.810555    -5.021384
H    -8.843299     1.210100    -4.948376
H     7.000273    -1.077380    -8.373322
O     6.397517    -1.795314    -8.615234
H     6.177655    -2.189681    -7.749986
H    -1.649134     6.224762    -7.034376
O    -2.047375     5.400064    -6.759625
H    -1.800983     5.271269    -5.795403
H    -0.005959     3.319909     9.020324
O     0.190548     2.400504     9.277167
H    -0.608854     2.137195     9.782419
H     6.775903    -2.789933    -2.682914
O     6.242404    -3.534140    -2.346759
H     6.714650    -4.345275    -2.585347
H    -4.054414    -3.085696    -4.945055
O    -4.205057    -2.974931    -5.910569
H    -4.752814    -2.182466    -5.970273
H     1.974499     2.192088     8.468370
O     2.639781     2.303120     7.779431
H     3.062157     1.432651     7.666617
H    -6.892244    -5.208674    -1.399823
O    -7.807124    -5.478909    -1.646877
H    -7.939067    -5.077714    -2.530725
H    -3.826863     5.260329     5.683096
O    -3.792822     6.027612     5.090883
H    -2.859169     6.322421     5.186669
H    -7.868091     0.080010    -1.981194
O    -7.377125     0.802811    -2.394701
H    -7.603605     0.790550    -3.348431
H     5.849656     0.125064     0.426801
O     5.626512     0.847922     1.045460
H     6.134513     0.654250     1.860239
H    -6.218364     3.318319     7.380152
O    -6.092125     2.801322     8.209824
H    -6.692357     2.039969     8.121563
H     2.293104    -8.080502    -0.822923
O     2.970570    -8.068344    -1.518778
H     2.747230    -8.784111    -2.130615
H    -2.718310    -3.976591    -6.195136
O    -1.963549    -4.540546    -5.961008
H    -1.691393    -4.248432    -5.062859
H    -5.642437     3.765435     5.293609
O    -6.292751     4.162821     5.908936
H    -6.129506     5.106900     5.894175
H    -0.999645    -7.125103    -3.150549
O    -0.527527    -6.453785    -2.623688
H     0.380184    -6.385506    -3.003420
H     4.446115     2.019426     5.138158
O     3.504747     2.258328     5.015341
H     3.118441     2.276436     5.896340
H     4.108423     4.662212     6.305357
O     4.191430     5.390916     5.685865
H     3.624925     5.149548     4.914433
H     2.768908     3.618591     3.925668
O     2.592167     4.558473     3.757742
H     2.474339     4.655555     2.790974
H     9.410075     0.204642    -1.047059
O     8.600316     0.366241    -0.559367
H     8.425057    -0.450581    -0.062758
H    -2.111193     5.333465     10.640490
O    -2.833591     4.705175     10.871317
H    -3.054190     4.884188     11.785613
H     7.985105    -3.014679     0.352474
O     8.405423    -2.167325     0.606463
H     8.337946    -2.160557     1.568712
H     5.375538     3.665649     3.533576
O     6.030764     3.931873     4.200385
H     5.617189     4.650552     4.700575
H    -4.217384     5.034261     9.770547
O    -4.848801     5.183871     9.046783
H    -5.460809     4.435372     9.044454
H    -6.990938    -3.488284    -3.492086
O    -7.610473    -4.101087    -3.940457
H    -7.088244    -4.544178    -4.641074
H     0.017147     6.142301     10.763821
O    -0.847016     6.472979     10.514143
H    -0.729511     6.902249     9.647430
H     2.609853     1.484813    -4.099661
O     3.489090     1.835513    -3.860563
H     3.805869     1.323788    -3.086459
H    -6.975636    -0.210736     7.207818
O    -7.484599     0.568383     7.485681
H    -8.106473     0.750520     6.780097
H    -2.728874    -9.879528    -0.817264
O    -2.665225    -8.938157    -0.978574
H    -3.571702    -8.571237    -0.740195
H    -10.045637     3.063647    -4.922022
O    -10.163083     2.146689    -4.639795
H    -10.381013     2.232477    -3.690719
H    -2.065108    -3.021255     4.617211
O    -2.940019    -3.461421     4.685845
H    -2.932581    -4.080475     3.930663
H    -0.171181    -7.983600     2.501122
O     0.654588    -7.772111     2.949662
H     1.373738    -8.069421     2.364679
H     6.705550    -2.370264     6.413100
O     7.155330    -3.080857     5.951132
H     6.525381    -3.815747     5.913626
H    -5.274567    -1.995834     6.938640
O    -5.949746    -1.498520     6.452371
H    -5.931873    -1.877194     5.543951
H     0.866111     3.017679    -7.115193
O     1.782742     2.683448    -7.166038
H     1.769197     1.937529    -7.794309
H    -3.956369     8.763924     6.652543
O    -3.951952     8.759989     5.695193
H    -4.077010     7.832043     5.428846
H    -2.040715     10.305270    -2.756359
O    -2.941939     10.486125    -3.059841
H    -2.869328     11.118767    -3.773827
H     9.414774    -4.060191     4.073919
O     9.132816    -4.737529     4.696338
H     8.702468    -4.264129     5.419312
H    -0.711251    -6.011281    -5.830064
O    -0.008749    -6.577157    -5.493255
H     0.827401    -6.117631    -5.710243
H     1.837242     8.271710     0.657206
O     1.535694     8.591801    -0.221562
H     2.351398     8.629281    -0.750470
H     3.528003     2.910812    -6.658561
O     4.353380     2.620539    -6.244314
H     4.104010     2.353702    -5.334576
H     3.748842     7.118073    -1.231500
O     3.955232     8.053377    -1.445967
H     4.325945     7.996060    -2.338560
H     4.559674     0.190143    -7.916692
O     4.795364     0.218316    -6.984891
H     4.662724     1.168068    -6.735248
H     6.044168     1.927365    -0.464263
O     6.610229     2.117277    -1.226347
H     7.435027     1.639529    -1.029023
H     6.699298    -8.439357    -1.577757
O     7.335861    -8.229530    -2.314166
H     7.705005    -9.063920    -2.598575
H    -5.277947    -5.801674    -5.406421
O    -5.894274    -5.129792    -5.722920
H    -5.342609    -4.362406    -5.960888
H     0.679499     7.182176     7.593274
O    -0.222764     7.210111     7.950881
H    -0.776647     7.223582     7.132283
H    -8.876797    -2.844321    -4.113297
O    -9.397078    -2.035304    -3.947890
H    -9.110209    -1.371732    -4.579031
H    -2.393636    -5.997087    -2.134999
O    -3.270427    -5.709946    -2.406901
H    -3.456137    -6.086600    -3.292140
H    -2.962884    -5.913401    -5.404049
O    -3.563185    -6.521708    -4.930860
H    -3.082325    -7.342292    -4.762788
H    -1.362511     3.710912    -6.989345
O    -0.823154     2.955649    -6.715263
H    -1.058639     2.169837    -7.265122
H    -0.175908     0.401933    -8.216419
O    -1.072162     0.636419    -7.932303
H    -1.248026     0.112294    -7.135146
H    -10.404636     4.044963    -2.759924
O    -10.473098     3.267298    -2.190522
H    -9.644805     3.241933    -1.679916
H     4.588963     4.078868     1.725876
O     4.380177     3.157937     2.004526
H     5.097416     2.582216     1.726560
H     6.506725     1.386654    -4.206450
O     6.202347     0.762026    -3.512970
H     6.230647     1.258418    -2.669341
H     9.647981    -2.233573    -0.901813
O     9.925720    -2.022310    -1.802020
H     9.126885    -1.681943    -2.246566
H     9.988928    -3.332953    -3.067810
O     9.722141    -3.984596    -3.743330
H     9.332978    -3.476018    -4.465201
H    -7.682628    -8.581473    -1.665421
O    -6.944574    -7.987109    -1.792457
H    -7.322560    -7.074179    -1.785071
H     4.181256     6.070139    -3.820393
O     4.842284     6.771269    -3.734545
H     5.678381     6.317679    -3.595506
H     0.119618    -8.184119    -5.199400
O     0.144435    -9.166450    -5.065437
H     0.294137    -9.532358    -5.937260
H    -2.315616    -8.682424    -2.703410
O    -2.078264    -8.419390    -3.612339
H    -1.432625    -9.039990    -3.969118
H     2.204849    -10.825649    -3.471344
O     2.158830    -9.870985    -3.450505
H     1.373104    -9.602356    -3.977370
H     6.858828     3.316503    -4.564150
O     6.916828     2.635977    -5.262883
H     6.125594     2.771183    -5.806455
H    -3.568142    -3.713495     7.722653
O    -3.681033    -2.926594     7.190964
H    -3.428037    -3.167271     6.273602
H    -0.610288    -3.376901    -6.719197
O     0.023018    -2.647797    -6.722178
H    -0.460564    -1.870139    -6.387273
H     0.636328     0.471506     8.755639
O     0.644943    -0.244492     8.116405
H    -0.277240    -0.533234     8.027558
H    -5.812683     7.357540    -4.273285
O    -6.314386     6.737595    -4.834178
H    -6.602775     6.007904    -4.242222
H    -4.259339     9.094310    -3.284888
O    -4.795089     8.298256    -3.178202
H    -4.388143     7.820162    -2.437611
H    -9.689657     5.785871    -4.672650
O    -10.223284     4.981453    -4.508713
H    -11.103116     5.181585    -4.830129
H     2.768836     6.522009     6.137497
O     1.808559     6.618513     6.233211
H     1.465170     5.705005     6.131802
H     4.816252     8.543313     0.082088
O     5.131845     8.545585     1.003633
H     5.538630     7.681580     1.136755
H     4.164844    -7.438376    -4.318272
O     3.408430    -7.721095    -4.864057
H     3.125385    -8.562102    -4.489935
H     0.381111     8.663026     4.222873
O     1.059284     8.017974     3.997276
H     1.284096     7.526656     4.813310
H     5.254428     4.182511    -3.151601
O     6.215792     4.150065    -3.098369
H     6.422949     3.571495    -2.347876
H    -2.581016    -1.535771     7.573318
O    -2.071013    -0.742153     7.792707
H    -2.697379    -0.115266     8.164914
H    -9.006677     7.927036    -4.175635
O    -8.942114     7.340592    -4.930856
H    -7.984798     7.176637    -5.064271
H     3.540423    -8.983287     1.116357
O     2.863233    -8.350048     1.359891
H     3.337161    -7.544848     1.641356
H     3.593296     8.171060     1.825633
O     2.802893     7.607307     1.937378
H     2.354646     7.844708     2.761949
N     4.747812    -3.900547    -10.309796
H     4.318410    -4.167687    -9.484802
H     5.622761    -3.609390    -10.024333
