30

H     1.599912     3.330209     6.900793
O     1.045440     3.918677     6.367768
H     0.250195     4.077955     6.927227
H     3.863654    -1.170597     7.109617
O     3.924985    -0.201588     7.170331
H     4.535378     0.053638     6.468374
H     6.590894     1.243287     4.594422
O     6.207371     1.864794     5.238591
H     6.361301     2.753119     4.818597
H     1.913172     2.100820     8.603323
O     2.611947     2.103339     7.930525
H     2.849081     1.164333     7.777456
H     4.507550     2.064460     5.000810
O     3.538866     2.226791     4.923252
H     3.197602     2.231548     5.823963
H     4.493369     5.067899     6.118264
O     4.377738     5.756891     5.437141
H     3.795383     5.354028     4.751618
H     2.786884     3.668771     3.830066
O     2.619007     4.615246     3.689116
H     2.438433     4.715153     2.726477
H     5.492483     3.875086     3.340052
O     6.222188     4.174578     3.910772
H     5.814151     4.906878     4.411996
H     2.804643     6.613731     6.121266
O     1.840509     6.651356     6.244098
H     1.563824     5.720898     6.133214
N     4.887108     3.785332     7.471083
H     5.543810     3.150319     7.163603
H     4.174296     3.237232     7.841611
