603

H     0.202967     3.019315    -0.676144
O     0.725366     2.351945    -1.171137
H     1.664012     2.478022    -0.895391
H    -0.085297    -1.330341     3.139586
O     0.307441    -0.629317     2.596639
H    -0.168157     0.184437     2.832907
H    -2.397534     2.402965    -0.539048
O    -2.188585     1.929257     0.283494
H    -2.206227     0.982180     0.055607
H    -4.668351     0.534658     2.170120
O    -4.987342    -0.398142     2.179230
H    -4.481980    -0.874412     1.512296
H     0.058501    -0.325383     0.943299
O    -0.137010    -0.085770     0.016557
H     0.203478     0.810914    -0.100310
H    -0.166844    -3.603957     3.761808
O    -0.446325    -2.773632     4.180456
H     0.197771    -2.606296     4.885380
H    -4.887510     2.521310     1.324180
O    -4.249616     2.108470     1.938290
H    -3.406113     2.091196     1.426795
H    -3.243159     3.897440    -2.210990
O    -2.507012     3.298255    -1.981257
H    -2.147709     3.012992    -2.841382
H    -0.135621    -3.820766     0.485326
O     0.204322    -3.005376     0.905919
H    -0.582238    -2.517570     1.217460
H    -2.386840    -1.556257     2.454385
O    -2.198407    -2.020345     1.612033
H    -2.454374    -1.430135     0.884233
H     2.067578    -1.456952    -1.130586
O     2.297850    -1.713802    -0.214047
H     1.507482    -2.140550     0.168194
H    -1.393757     1.807558     1.908371
O    -1.487892     1.406870     2.782687
H    -1.472660     2.116578     3.450476
H     0.202476    -2.712009    -1.585343
O    -0.552497    -2.099505    -1.639370
H    -0.372725    -1.374815    -1.003381
H    -3.445131    -2.932449    -0.412721
O    -2.727689    -3.424137    -0.833849
H    -2.016755    -2.793226    -1.049303
H     2.764740     0.100967     2.929735
O     2.862134    -0.085092     3.890705
H     2.954737     0.805876     4.299002
H    -3.521815     6.374660    -0.534539
O    -3.281492     7.039112    -1.232362
H    -3.138768     7.882409    -0.759102
H     3.897392     0.559542     1.184976
O     2.946248     0.379354     1.298474
H     2.708724    -0.371155     0.716942
H    -5.781932     0.844605    -1.617022
O    -4.871071     1.169822    -1.488643
H    -4.981202     1.996879    -0.974589
H    -1.209613     5.378496     2.218448
O    -1.835607     4.632753     2.098357
H    -1.915216     4.211367     2.959429
H     3.493435     2.742011     0.430701
O     3.246410     2.702553    -0.508945
H     3.578216     1.860534    -0.861486
H     1.482405    -4.705960    -2.271171
O     1.547616    -3.931540    -1.694601
H     2.343101    -3.469993    -2.043178
H    -0.923032    -0.088150    -2.557361
O    -0.286995     0.563765    -2.878764
H    -0.026399     1.143518    -2.139733
H     1.688292    -4.701157    -0.193911
O     1.790081    -5.343694     0.544632
H     1.326489    -6.149844     0.238602
H    -1.232473    -3.267018    -2.900288
O    -1.059976    -3.949374    -3.562516
H    -0.935432    -4.797259    -3.095410
H    -2.785060     3.284633     4.704036
O    -1.803843     3.280421     4.671042
H    -1.512700     2.875335     5.506371
H     0.961008     5.006029     4.085748
O     0.015219     5.239670     4.137241
H    -0.458264     4.436405     4.392170
H    -1.741011    -4.658013    -0.398174
O    -0.979213    -5.204871    -0.115040
H    -1.331875    -5.888080     0.463499
H    -3.908842     5.834127    -2.591762
O    -4.260588     5.001775    -2.924935
H    -4.104381     4.970004    -3.892988
H    -2.443037    -3.704450     1.913620
O    -2.462974    -4.611600     2.282617
H    -1.524660    -4.850390     2.428044
H    -4.701541    -2.975028    -2.922470
O    -3.849139    -3.208706    -3.328322
H    -3.520253    -4.003925    -2.864686
H     0.331727     1.347495     4.612036
O     0.838880     2.108111     4.280960
H     0.888467     2.764422     4.990209
H    -4.666521    -5.170300    -1.601718
O    -5.368450    -4.817797    -1.027732
H    -5.157129    -5.174751    -0.144253
H     2.316234    -6.485692    -4.066677
O     1.978053    -6.160232    -3.212363
H     2.412904    -6.735208    -2.550597
H     0.461506    -3.380173    -4.024164
O     1.265509    -3.014017    -4.445253
H     0.947971    -2.638319    -5.292645
H     1.953653    -1.780205     2.970875
O     2.107311    -2.710117     2.748689
H     1.420761    -2.920525     2.081712
H    -3.018757    -1.806415    -3.227586
O    -2.594867    -0.921149    -3.159386
H    -3.248828    -0.273005    -3.477277
H    -3.187671     4.964200     1.084253
O    -3.968234     5.340449     0.630003
H    -4.383234     5.896681     1.337601
H     0.872234     2.229953     2.591471
O     0.974227     2.228293     1.620285
H     1.700555     1.604556     1.455118
H     0.196542     5.645571    -0.747472
O     0.719646     6.308272    -1.253756
H     0.862595     7.105968    -0.695164
H     0.347498     7.013454     2.606267
O    -0.014276     6.636408     1.787125
H     0.648857     5.965395     1.524442
H    -2.488006     0.194965     3.330714
O    -2.711589    -0.620714     3.832105
H    -1.952046    -0.663113     4.455153
H    -0.905017     0.521731     6.017933
O    -0.630992     0.004881     5.241855
H     0.081431    -0.600906     5.527704
H     0.701525    -5.004775     1.935837
O     0.179092    -5.085638     2.756496
H     0.327319    -5.994944     3.045335
H    -2.146414    -8.101549     0.403983
O    -1.823451    -7.614729     1.190752
H    -2.605362    -7.303945     1.654518
H    -0.369520     6.858692    -2.311341
O    -1.114786     7.281417    -2.810118
H    -1.905503     7.154668    -2.247618
H    -1.111143     4.296250     0.578753
O    -0.737292     4.359564    -0.316833
H    -1.443678     4.120973    -0.950637
H    -4.413505     2.729909     3.502910
O    -4.412994     2.897138     4.467978
H    -4.498053     2.012867     4.874142
H     2.009243    -3.615072     4.227610
O     1.939218    -4.085432     5.080235
H     2.447627    -3.552522     5.712844
H     4.675812    -3.221144     0.825584
O     4.517364    -3.141013    -0.141122
H     3.659545    -2.661631    -0.223406
H    -2.727004    -0.752260    -1.365755
O    -3.055078    -0.485409    -0.490687
H    -3.854202     0.042923    -0.696342
H    -1.617226    -0.755809    -4.643967
O    -1.108592    -0.538825    -5.446545
H    -0.398433     0.056041    -5.158611
H     1.791324    -1.720461    -3.388896
O     1.883928    -0.976114    -2.763103
H     1.107832    -0.397025    -2.892931
H     3.646766    -3.155714     2.537525
O     4.604681    -3.388884     2.460606
H     4.661047    -4.346291     2.596582
H     3.391980    -6.143343     3.143244
O     3.744737    -5.954219     2.234360
H     3.016226    -5.599930     1.689765
H    -3.340857     1.617333    -4.184330
O    -4.186684     1.147260    -3.996146
H    -4.405182     1.290383    -3.039261
H    -5.079978     4.142939     0.066306
O    -5.519912     3.277982    -0.040768
H    -6.449852     3.399814    -0.322762
H     6.729029    -1.203758    -1.366946
O     5.955902    -1.054819    -0.816255
H     5.535589    -1.922601    -0.621582
H     4.586107    -3.182949    -2.483578
O     3.718930    -3.009043    -2.900005
H     3.722315    -3.625025    -3.658267
H     4.418899    -2.334107     5.611859
O     4.073612    -2.801525     6.401848
H     4.412242    -3.706193     6.316819
H    -0.753555     6.308949     5.086955
O    -1.349928     6.884136     5.626174
H    -1.361238     7.762634     5.187617
H     4.695231    -0.153990    -1.469526
O     3.929169     0.390574    -1.731991
H     3.235971    -0.207849    -2.064220
H    -0.734766     4.524654    -4.031334
O    -1.516312     5.069636    -4.238722
H    -1.364010     5.934647    -3.813018
H     0.663494     3.197788    -2.654863
O     0.672292     3.577358    -3.562272
H     0.719029     2.815687    -4.150103
H    -5.399714    -5.203909     1.762567
O    -4.703259    -5.798829     1.406491
H    -3.863034    -5.383852     1.679638
H     7.877869    -1.705609    -4.038868
O     7.619432    -1.394997    -3.138596
H     7.134440    -0.549608    -3.292687
H     3.693050    -5.075593    -5.310927
O     4.455717    -4.705559    -4.827727
H     4.838215    -5.418978    -4.283763
H    -3.794677    -0.005031     4.922525
O    -4.395501     0.458303     5.555526
H    -5.056667    -0.199790     5.845272
H     3.449657    -5.959978    -0.538015
O     4.321691    -5.714791    -0.859356
H     4.400936    -4.753076    -0.712034
H     4.999556    -0.345309    -4.164389
O     4.463487    -1.054637    -4.557097
H     4.135538    -1.639349    -3.841205
H    -1.170043     1.573466    -3.941038
O    -1.819237     2.196128    -4.325535
H    -1.460093     2.530207    -5.170198
H     4.871542    -6.336936    -2.337896
O     5.203488    -6.661372    -3.204215
H     6.021423    -7.142851    -3.018682
H     8.729207    -5.112211    -2.933721
O     8.036156    -5.530943    -2.378230
H     8.070200    -6.487906    -2.482584
H     2.341086     4.700110     0.461258
O     1.760764     4.680862     1.231549
H     1.401837     3.760844     1.306180
H    -4.430161    -2.653673     4.210120
O    -5.323463    -2.312517     4.006767
H    -5.184258    -1.529223     3.434847
H    -5.858192    -3.202959     1.292681
O    -6.322142    -3.762155     1.958383
H    -6.134235    -3.329551     2.810728
H     1.679873     3.429656     6.867299
O     1.058539     3.948323     6.334454
H     0.275209     4.100725     6.905708
H     4.987906    -2.204423     3.605979
O     5.009916    -1.486688     4.269914
H     4.198238    -0.929814     4.116341
H     2.465773    -5.547675     4.950490
O     2.952887    -6.386813     4.719878
H     2.426177    -7.138302     5.053186
H     2.251230    -4.512409    -6.810728
O     2.079919    -5.003022    -5.996857
H     1.816113    -4.313039    -5.339625
H     6.427509    -4.127500    -0.517966
O     7.178659    -4.534683    -0.055100
H     7.686707    -4.955269    -0.776358
H    -1.731011     4.454708     7.705388
O    -0.832416     4.550264     8.091958
H    -0.649912     5.508972     8.119663
H    -5.107668     5.707388    -5.591738
O    -4.501387     4.942878    -5.613964
H    -3.743154     5.157874    -6.178411
H     3.280491    -2.520430    -8.449848
O     3.191172    -3.055462    -7.650280
H     4.067448    -3.033724    -7.220482
H    -0.647167     8.821908    -2.259110
O    -0.523264     9.648621    -1.737701
H     0.238027     9.471053    -1.160576
H     2.054021    -0.947065     5.203199
O     1.477690    -1.472437     5.787301
H     1.572697    -1.132728     6.686395
H     5.202852    -2.029344    -5.702309
O     5.547897    -2.794660    -6.226609
H     5.272573    -3.585625    -5.711554
H     5.688854    -5.238667     4.672143
O     5.182736    -5.152120     5.505557
H     4.444812    -5.776751     5.408513
H    -3.985098     1.117332     6.998335
O    -3.793240     1.590663     7.843555
H    -4.668935     1.976630     8.104819
H    -1.838849     9.607068    -0.725399
O    -2.699994     9.480631    -0.252249
H    -3.309735     10.111326    -0.638768
H    -5.942363     4.696317    -2.938244
O    -6.850898     4.579860    -3.283752
H    -6.760988     3.879429    -3.962883
H     0.082626    -7.072345    -1.183583
O     0.538530    -7.514864    -0.434108
H    -0.149832    -7.709945     0.203671
H    -7.634171     3.797946    -1.977808
O    -7.897401     3.209090    -1.239902
H    -7.755478     2.301253    -1.582095
H     3.958636    -0.936196     6.979838
O     3.968664     0.028225     6.973190
H     4.782430     0.317554     6.544092
H     2.264295     5.782278    -1.167138
O     3.199278     5.487774    -1.053106
H     3.375727     4.949683    -1.847668
H     6.530848    -5.958456     0.652714
O     6.158581    -6.697587     1.180039
H     5.254955    -6.421348     1.410532
H    -3.874150     4.698036     7.783515
O    -3.307807     4.236472     7.123459
H    -3.502503     3.292938     7.231078
H     5.741548    -7.970790     0.112081
O     5.450792    -8.657480    -0.525671
H     4.627663    -8.324728    -0.925937
H    -0.567610     2.004624     7.690894
O    -1.200395     1.944399     6.955030
H    -2.069267     1.802128     7.350405
H    -6.389622    -0.126369     1.047271
O    -6.709055    -0.207345     0.133790
H    -7.628508    -0.475701     0.150273
H    -5.382935    -3.065182    -0.612067
O    -5.129332    -2.365972     0.016278
H    -5.697884    -1.591244    -0.168530
H     4.321368     5.555533     0.333954
O     4.654696     5.652979     1.239692
H     3.960594     6.162773     1.693085
H    -9.050580    -1.734557    -2.276181
O    -8.502786    -1.536799    -1.489181
H    -8.632281    -2.274881    -0.853696
H    -5.518345     3.485216    -5.530481
O    -6.037262     2.773973    -5.118682
H    -5.372118     2.186221    -4.705932
H     3.179017    -0.890058    -5.662890
O     2.323291    -1.007370    -6.129868
H     2.408094    -1.854896    -6.606004
H     8.112476    -1.359367    -6.033262
O     8.118684    -2.224910    -5.579728
H     7.262004    -2.622447    -5.832277
H     7.623142     0.982722    -6.307364
O     7.433067     0.136053    -6.723451
H     6.451686     0.087998    -6.760725
H    -7.874030    -3.694506     0.902787
O    -8.551255    -3.584204     0.217762
H    -8.454215    -4.342114    -0.385862
H    -2.399004     8.723970     1.309713
O    -2.250032     8.132812     2.061035
H    -1.480537     7.579095     1.837358
H    -4.441903     6.419559     3.504422
O    -4.610571     6.848387     2.648985
H    -3.846069     7.433544     2.512014
H     3.404839     3.437890    -3.571334
O     3.253091     4.407128    -3.475349
H     2.288411     4.473812    -3.583441
H    -6.121069    -1.596670    -3.461420
O    -6.205725    -2.178582    -2.679566
H    -6.989531    -1.871440    -2.170480
H     6.459043     1.009824     4.741175
O     6.065238     1.547585     5.445055
H     6.255220     2.466651     5.157019
H     1.364608     1.724436    -5.823975
O     1.167983     1.126468    -5.071942
H     1.530621     0.263741    -5.343848
H    -2.500867     2.922127     10.482517
O    -2.289929     2.015040     10.206668
H    -2.887144     1.818502     9.473083
H     7.617557    -0.534982     3.081763
O     6.868470     0.042119     3.250181
H     6.174816    -0.558261     3.627964
H    -5.679058    -8.055091    -0.740241
O    -4.943727    -8.126329    -0.094239
H    -4.948377    -7.311140     0.431298
H    -5.179010    -0.107707    -4.728783
O    -5.796984    -0.817752    -4.971517
H    -6.634194    -0.373967    -5.168956
H     1.891137    -0.191981    -7.521824
O     1.691099     0.282623    -8.364553
H     2.267832    -0.121542    -9.018266
H     4.872970    -1.386886    -9.311601
O     3.948406    -1.155767    -9.594004
H     3.929122    -1.270112    -10.543487
H     7.548915    -2.611334     4.191629
O     7.696637    -2.643130     3.231716
H     7.203310    -3.433609     2.957682
H     6.704241    -5.930241     2.663163
O     6.770236    -5.250950     3.358470
H     7.641099    -5.342948     3.784477
H    -1.814571     8.927081     3.514865
O    -1.567235     9.228762     4.414306
H    -2.416218     9.361106     4.869473
H    -7.388184     1.584413    -5.261130
O    -7.964479     0.840460    -5.018942
H    -8.865588     1.241471    -4.942580
H     6.926512    -1.083083    -8.408947
O     6.343584    -1.802354    -8.675347
H     6.114206    -2.254305    -7.844944
H    -1.664568     6.252945    -7.012914
O    -2.063956     5.427433    -6.742281
H    -1.816780     5.293384    -5.778704
H    -0.008688     3.270273     9.025535
O     0.186662     2.349507     9.278075
H    -0.612473     2.084850     9.782883
H     6.747625    -2.797121    -2.714562
O     6.215478    -3.541771    -2.377031
H     6.683467    -4.352363    -2.625003
H    -4.084401    -3.063007    -4.964938
O    -4.237172    -2.947431    -5.929586
H    -4.783047    -2.153276    -5.984132
H     1.969390     2.140986     8.466029
O     2.634022     2.254507     7.776893
H     3.054800     1.383721     7.659338
H    -6.922165    -5.197250    -1.426167
O    -7.837540    -5.465403    -1.673738
H    -7.969949    -5.059286    -2.555289
H    -3.829700     5.232956     5.701733
O    -3.795071     6.003062     5.113156
H    -2.860676     6.295516     5.209151
H    -7.889046     0.095640    -1.981537
O    -7.397453     0.819436    -2.392515
H    -7.624970     0.811869    -3.345955
H     5.831279     0.104772     0.410467
O     5.610077     0.825115     1.032836
H     6.118944     0.626381     1.846059
H    -6.223013     3.287257     7.392383
O    -6.096973     2.766455     8.219663
H    -6.698215     2.006257     8.128538
H     2.254158    -8.088368    -0.876792
O     2.935546    -8.076219    -1.568436
H     2.711114    -8.786536    -2.185927
H    -2.751906    -3.950443    -6.219867
O    -1.999998    -4.519295    -5.988666
H    -1.723676    -4.230219    -5.090726
H    -5.648408     3.742914     5.307621
O    -6.297721     4.138848     5.925025
H    -6.132026     5.082565     5.915068
H    -1.034039    -7.115968    -3.193394
O    -0.559823    -6.449930    -2.662153
H     0.347132    -6.378771    -3.044655
H     4.436770     1.979595     5.132046
O     3.495810     2.221643     5.011523
H     3.110607     2.235258     5.893096
H     4.105411     4.617779     6.311817
O     4.188281     5.349623     5.695988
H     3.620903     5.112342     4.923927
H     2.761222     3.587601     3.929302
O     2.585570     4.528556     3.765776
H     2.467164     4.630095     2.799595
H     9.389156     0.183744    -1.068799
O     8.582330     0.346364    -0.576552
H     8.404863    -0.473164    -0.085089
H    -2.108299     5.280060     10.657416
O    -2.831794     4.652267     10.886121
H    -3.050478     4.826860     11.801722
H     7.960942    -3.038664     0.319283
O     8.383451    -2.193499     0.576594
H     8.316545    -2.191106     1.539046
H     5.367485     3.631641     3.534097
O     6.024012     3.894603     4.200921
H     5.611848     4.611143     4.705203
H    -4.216045     4.988519     9.788524
O    -4.848282     5.142666     9.066408
H    -5.461272     4.394982     9.061189
H    -7.020153    -3.466960    -3.510366
O    -7.641185    -4.076802    -3.960898
H    -7.120458    -4.517305    -4.664246
H     0.021467     6.084044     10.782121
O    -0.842170     6.418067     10.535055
H    -0.724688     6.850795     9.670056
H     2.589847     1.490431    -4.105665
O     3.468812     1.840575    -3.865575
H     3.787237     1.323061    -3.095828
H    -6.986142    -0.239720     7.205077
O    -7.493748     0.538901     7.486902
H    -8.116004     0.725201     6.782758
H    -2.767057    -9.878669    -0.867907
O    -2.700122    -8.936106    -1.020589
H    -3.607960    -8.568630    -0.784921
H    -10.064475     3.096991    -4.906100
O    -10.183460     2.178911    -4.628176
H    -10.399937     2.260657    -3.678380
H    -2.083349    -3.047220     4.595802
O    -2.960446    -3.483878     4.661896
H    -2.954250    -4.102043     3.906603
H    -0.384036    -7.965597     2.224601
O     0.450257    -7.928754     2.721423
H     1.166566    -8.196868     2.111714
H     6.690382    -2.419407     6.384214
O     7.139834    -3.127150     5.917880
H     6.507495    -3.861971     5.877545
H    -5.288481    -2.026863     6.925469
O    -5.963347    -1.525805     6.442374
H    -5.947416    -1.900449     5.532330
H     0.842482     3.039921    -7.112127
O     1.759500     2.707467    -7.168491
H     1.744793     1.961888    -7.796568
H    -3.951572     8.732170     6.687649
O    -3.948898     8.732718     5.730275
H    -4.075428     7.806105     5.459889
H    -2.044312     10.313680    -2.715922
O    -2.945372     10.497718    -3.018061
H    -2.871913     11.133634    -3.729035
H     9.393024    -4.102442     4.034640
O     9.112532    -4.783047     4.654028
H     8.680550    -4.313976     5.379004
H    -0.746385    -5.991248    -5.866679
O    -0.044319    -6.559703    -5.533414
H     0.792208    -6.099196    -5.749928
H     1.833857     8.257484     0.683207
O     1.531920     8.582475    -0.193712
H     2.347133     8.620481    -0.723350
H     3.503941     2.930515    -6.657843
O     4.330625     2.637250    -6.248910
H     4.084204     2.361644    -5.340877
H     3.741310     7.109169    -1.212844
O     3.949017     8.045117    -1.423575
H     4.318914     7.990807    -2.316709
H     4.396296    -0.004553    -7.915373
O     4.772789     0.138221    -7.045133
H     4.592786     1.069833    -6.798896
H     6.028460     1.910489    -0.471712
O     6.594560     2.104715    -1.232732
H     7.418163     1.623166    -1.039330
H     6.663487    -8.453606    -1.631143
O     7.299205    -8.241564    -2.367036
H     7.666471    -9.074878    -2.656818
H    -5.313383    -5.774381    -5.437376
O    -5.928951    -5.100318    -5.750707
H    -5.376196    -4.332383    -5.984709
H     0.682282     7.137687     7.615611
O    -0.219524     7.166164     7.974390
H    -0.774295     7.183961     7.156506
H    -8.905335    -2.816763    -4.126394
O    -9.424315    -2.007778    -3.956891
H    -9.136586    -1.341542    -4.584829
H    -2.424487    -5.989470    -2.171748
O    -3.302643    -5.702199    -2.439028
H    -3.489826    -6.072245    -3.326789
H    -2.999156    -5.889862    -5.437555
O    -3.599968    -6.500231    -4.967002
H    -3.119776    -7.322035    -4.803815
H    -1.383252     3.738108    -6.980378
O    -0.844689     2.980397    -6.711512
H    -1.082863     2.197437    -7.263878
H    -0.201992     0.430110    -8.222444
O    -1.097922     0.665971    -7.939193
H    -1.274633     0.140564    -7.142800
H    -10.419200     4.068874    -2.739034
O    -10.488527     3.288503    -2.173479
H    -9.659693     3.259138    -1.663855
H     4.579951     4.054479     1.729254
O     4.369429     3.132998     2.004124
H     5.084894     2.556712     1.722558
H     6.485934     1.385900    -4.217056
O     6.181127     0.760215    -3.525321
H     6.212134     1.253109    -2.679930
H     9.623428    -2.254146    -0.934844
O     9.901066    -2.038344    -1.834046
H     9.101847    -1.696155    -2.276821
H     9.959637    -3.343571    -3.106757
O     9.691880    -3.993074    -3.783957
H     9.300013    -3.482461    -4.503078
H    -7.718997    -8.567446    -1.705545
O    -6.979773    -7.974165    -1.830832
H    -7.356084    -7.060382    -1.819451
H     4.169008     6.072247    -3.806669
O     4.831302     6.772072    -3.719391
H     5.666562     6.316281    -3.582233
H     0.081462    -8.167250    -5.247519
O     0.103057    -9.150642    -5.117800
H     0.253299    -9.512673    -5.991148
H    -2.352135    -8.674132    -2.750714
O    -2.116885    -8.407367    -3.658528
H    -1.471803    -9.025944    -4.020055
H     2.161378    -10.822391    -3.534107
O     2.114926    -9.868084    -3.504464
H     1.331842    -9.594147    -4.032569
H     6.839788     3.318850    -4.566170
O     6.897310     2.642628    -5.269019
H     6.104560     2.778869    -5.809980
H    -3.582779    -3.750494     7.700021
O    -3.697449    -2.961514     7.171629
H    -3.444471    -3.198599     6.253425
H    -0.644396    -3.352980    -6.742840
O    -0.012474    -2.623072    -6.747130
H    -0.492832    -1.847414    -6.403855
H     0.628208     0.421560     8.747461
O     0.634754    -0.290088     8.103544
H    -0.287491    -0.578601     8.015327
H    -5.823093     7.379915    -4.242379
O    -6.326639     6.763592    -4.805663
H    -6.615487     6.031531    -4.216799
H    -4.265554     9.109274    -3.247681
O    -4.802678     8.313712    -3.144270
H    -4.395808     7.831378    -2.406325
H    -9.703146     5.817332    -4.644900
O    -10.238045     5.013075    -4.484309
H    -11.118079     5.216571    -4.803025
H     2.768585     6.480519     6.154465
O     1.808553     6.578557     6.251615
H     1.463516     5.665993     6.146571
H     4.812765     8.526262     0.105911
O     5.129531     8.523990     1.027042
H     5.534579     7.658494     1.155944
H     4.127040    -7.432990    -4.368797
O     3.368484    -7.714859    -4.912075
H     3.087041    -8.556691    -4.538969
H     0.382619     8.634727     4.252755
O     1.059481     7.989703     4.023261
H     1.284378     7.493955     4.836661
H     5.239498     4.178997    -3.148220
O     6.200853     4.146801    -3.095027
H     6.408030     3.563014    -2.348491
H    -2.593121    -1.574974     7.559354
O    -2.082563    -0.782196     7.780581
H    -2.707476    -0.156959     8.157727
H    -9.016020     7.954597    -4.138405
O    -8.953197     7.371984    -4.896741
H    -7.996262     7.206750    -5.031586
H     3.496412    -9.021054     0.965893
O     2.839459    -8.394175     1.285852
H     3.352075    -7.619020     1.597179
H     3.591127     8.148246     1.849198
O     2.799458     7.585913     1.958957
H     2.352988     7.819807     2.785487
N     1.269149    -8.546797     5.287725
H     1.675070    -9.417139     5.329998
H     0.866451    -8.496014     4.397971
