603

H     0.202321     3.045134    -0.671863
O     0.728229     2.380455    -1.166629
H     1.666085     2.510323    -0.890649
H    -0.066721    -1.297189     3.153568
O     0.322739    -0.595159     2.609650
H    -0.157040     0.216640     2.844144
H    -2.396496     2.417668    -0.533001
O    -2.184707     1.947385     0.290760
H    -2.198397     0.999504     0.065409
H    -4.657993     0.546155     2.181619
O    -4.973016    -0.387875     2.193390
H    -4.466073    -0.863914     1.527429
H     0.071623    -0.297088     0.955132
O    -0.126181    -0.058787     0.028606
H     0.212550     0.838168    -0.089957
H    -0.140158    -3.567677     3.778579
O    -0.421709    -2.738696     4.199601
H     0.223569    -2.567365     4.902040
H    -4.885979     2.529927     1.330978
O    -4.245954     2.121767     1.946014
H    -3.402715     2.106437     1.434049
H    -3.248583     3.904612    -2.208083
O    -2.509052     3.310025    -1.977202
H    -2.149763     3.023162    -2.836819
H    -0.107756    -3.793007     0.503931
O     0.229127    -2.974540     0.922310
H    -0.559765    -2.490938     1.234398
H    -2.368128    -1.533830     2.469943
O    -2.177838    -1.998695     1.628716
H    -2.436211    -1.411318     0.899468
H     2.085407    -1.424681    -1.116647
O     2.316048    -1.676710    -0.198945
H     1.528122    -2.107668     0.183476
H    -1.389242     1.832557     1.915613
O    -1.481262     1.433975     2.791132
H    -1.468571     2.145447     3.457036
H     0.224751    -2.688716    -1.568660
O    -0.532106    -2.078455    -1.623630
H    -0.355142    -1.352858    -0.988239
H    -3.420827    -2.920749    -0.393133
O    -2.702191    -3.410580    -0.814121
H    -1.993057    -2.778196    -1.030702
H     2.777503     0.146410     2.938976
O     2.875088    -0.036647     3.900809
H     2.964698     0.855720     4.306434
H    -3.537080     6.384579    -0.537769
O    -3.299428     7.048535    -1.237103
H    -3.160939     7.893527    -0.765699
H     3.907912     0.601979     1.196746
O     2.955555     0.422642     1.307585
H     2.721596    -0.331226     0.728852
H    -5.774162     0.842355    -1.605997
O    -4.864720     1.172187    -1.479054
H    -4.978347     1.999702    -0.966613
H    -1.220151     5.404991     2.217780
O    -1.842717     4.656336     2.099048
H    -1.920760     4.236306     2.960933
H     3.492240     2.782633     0.434023
O     3.250321     2.743150    -0.507022
H     3.577354     1.897266    -0.856364
H     1.513294    -4.678824    -2.249504
O     1.574413    -3.901315    -1.676335
H     2.369482    -3.438901    -2.025129
H    -0.911482    -0.072755    -2.545847
O    -0.279993     0.582875    -2.868916
H    -0.020929     1.163923    -2.130625
H     1.719204    -4.668334    -0.178330
O     1.826045    -5.305359     0.564299
H     1.366105    -6.117893     0.266836
H    -1.207774    -3.253929    -2.880167
O    -1.032388    -3.935985    -3.541766
H    -0.903684    -4.783169    -3.073678
H    -2.785763     3.310522     4.708309
O    -1.804483     3.311013     4.675099
H    -1.511205     2.908746     5.510993
H     0.952904     5.046160     4.085018
O     0.006212     5.276178     4.135541
H    -0.464096     4.471742     4.392770
H    -1.710915    -4.642165    -0.373654
O    -0.944581    -5.181136    -0.088742
H    -1.290386    -5.869261     0.489054
H    -3.922738     5.837645    -2.593587
O    -4.270821     5.002854    -2.924374
H    -4.115318     4.969243    -3.892502
H    -2.415220    -3.684577     1.934294
O    -2.431754    -4.589133     2.309213
H    -1.491409    -4.824983     2.450388
H    -4.677619    -2.976318    -2.902125
O    -3.824448    -3.206431    -3.308226
H    -3.491503    -3.999538    -2.843368
H     0.339728     1.386504     4.619572
O     0.842570     2.149133     4.286622
H     0.890144     2.806662     4.994861
H    -4.632910    -5.167504    -1.576212
O    -5.336264    -4.816401    -1.002851
H    -5.122888    -5.170977    -0.118785
H     2.354147    -6.460296    -4.039298
O     2.014773    -6.133007    -3.186106
H     2.450873    -6.705583    -2.522700
H     0.486578    -3.361842    -4.004678
O     1.288035    -2.991702    -4.427397
H     0.967761    -2.621259    -5.275973
H     1.974029    -1.737897     2.985385
O     2.130697    -2.668384     2.767643
H     1.446303    -2.882847     2.099567
H    -2.999922    -1.801243    -3.210748
O    -2.580218    -0.913550    -3.145186
H    -3.237481    -0.269599    -3.464377
H    -3.196682     4.979560     1.084397
O    -3.978621     5.351921     0.629411
H    -4.396024     5.907697     1.335932
H     0.875296     2.266317     2.596708
O     0.978101     2.263569     1.625645
H     1.706177     1.641122     1.462174
H     0.183851     5.670421    -0.750063
O     0.705392     6.334164    -1.257066
H     0.843026     7.134033    -0.700322
H     0.330022     7.047475     2.600780
O    -0.029642     6.667743     1.781961
H     0.635510     5.997974     1.521498
H    -2.476055     0.218976     3.342544
O    -2.696149    -0.595981     3.846632
H    -1.935779    -0.634197     4.468712
H    -0.892886     0.558910     6.028435
O    -0.616877     0.041538     5.253391
H     0.098175    -0.560532     5.539817
H     0.728496    -4.981451     1.979933
O     0.185143    -5.093118     2.783465
H     0.332745    -6.013333     3.055405
H    -2.091124    -8.081037     0.442693
O    -1.770729    -7.592987     1.228612
H    -2.558116    -7.284193     1.684408
H    -0.387849     6.877619    -2.315942
O    -1.134580     7.296317    -2.815441
H    -1.925004     7.167457    -2.252801
H    -1.117358     4.319621     0.579820
O    -0.744077     4.382881    -0.316025
H    -1.449561     4.138808    -0.948934
H    -4.412108     2.745868     3.509083
O    -4.411824     2.915537     4.473776
H    -4.493089     2.031889     4.882092
H     2.037398    -3.568510     4.246093
O     1.973354    -4.041058     5.099111
H     2.480544    -3.504534     5.729911
H     4.703946    -3.171086     0.843091
O     4.541928    -3.095832    -0.123039
H     3.682454    -2.620232    -0.206020
H    -2.712217    -0.741161    -1.351453
O    -3.041006    -0.472243    -0.477249
H    -3.842899     0.051222    -0.684372
H    -1.604204    -0.748091    -4.630434
O    -1.097133    -0.529329    -5.433606
H    -0.388733     0.067754    -5.146475
H     1.808879    -1.695549    -3.373869
O     1.898496    -0.947912    -2.751437
H     1.119321    -0.373598    -2.882137
H     3.676475    -3.103524     2.554210
O     4.636169    -3.328862     2.481780
H     4.695063    -4.288776     2.607653
H     3.446998    -6.102718     3.123931
O     3.802205    -5.900820     2.223938
H     3.064441    -5.555721     1.681287
H    -3.337163     1.619743    -4.175943
O    -4.181141     1.147113    -3.986617
H    -4.399802     1.290748    -3.029836
H    -5.085990     4.148036     0.069019
O    -5.522028     3.280905    -0.035564
H    -6.452636     3.397728    -0.317700
H     6.652382    -1.245152    -1.348545
O     5.900100    -1.051030    -0.782441
H     5.451687    -1.908080    -0.582355
H     4.611618    -3.141488    -2.467274
O     3.742051    -2.975265    -2.882496
H     3.748571    -3.594658    -3.638130
H     4.443342    -2.275335     5.626408
O     4.100255    -2.742689     6.418652
H     4.439011    -3.646326     6.336527
H    -0.766851     6.344269     5.083341
O    -1.365366     6.918234     5.621402
H    -1.380697     7.795620     5.180761
H     4.704015    -0.109498    -1.459295
O     3.933246     0.431052    -1.719738
H     3.245763    -0.172535    -2.053506
H    -0.742611     4.538197    -4.030490
O    -1.526307     5.079340    -4.239397
H    -1.378532     5.945906    -3.815474
H     0.661719     3.221021    -2.651463
O     0.671556     3.599366    -3.559583
H     0.717349     2.836214    -4.145668
H    -5.364832    -5.195520     1.788764
O    -4.666499    -5.788083     1.433248
H    -3.827085    -5.370608     1.705103
H     7.855925    -1.740466    -4.069226
O     7.678161    -1.371813    -3.165349
H     7.194728    -0.524848    -3.328572
H     3.725263    -5.048373    -5.287929
O     4.485734    -4.671682    -4.806790
H     4.873187    -5.381081    -4.260572
H    -3.780966     0.017506     4.935134
O    -4.383432     0.479632     5.567613
H    -5.042131    -0.180435     5.858429
H     3.486620    -5.920539    -0.517894
O     4.358140    -5.671348    -0.837148
H     4.433963    -4.709258    -0.691226
H     5.005090    -0.320067    -4.152243
O     4.469430    -1.027896    -4.549523
H     4.146765    -1.614964    -3.832814
H    -1.167026     1.585037    -3.932896
O    -1.817500     2.205493    -4.319076
H    -1.459632     2.537602    -5.164957
H     4.909644    -6.295340    -2.314453
O     5.242319    -6.619953    -3.180277
H     6.063198    -7.096251    -2.993993
H     8.760576    -5.052118    -2.914654
O     8.068646    -5.474495    -2.358359
H     8.110727    -6.431256    -2.460057
H     2.333317     4.735878     0.460989
O     1.752834     4.717535     1.230906
H     1.397954     3.795956     1.309195
H    -4.405102    -2.636152     4.229089
O    -5.299825    -2.298632     4.026388
H    -5.164483    -1.516717     3.451616
H    -5.832371    -3.198256     1.313611
O    -6.294515    -3.756808     1.981107
H    -6.107455    -3.321786     2.832195
H     1.679690     3.479724     6.869703
O     1.055963     3.994681     6.336076
H     0.272067     4.144788     6.907192
H     5.011234    -2.147896     3.621242
O     5.027799    -1.430898     4.286950
H     4.215741    -0.876183     4.128739
H     2.407581    -5.562002     4.839147
O     2.789918    -6.444749     4.578948
H     2.046597    -7.027947     4.403283
H     2.279590    -4.492728    -6.789448
O     2.109967    -4.982241    -5.974680
H     1.844631    -4.292367    -5.318330
H     6.458859    -4.072568    -0.500241
O     7.210935    -4.476162    -0.036071
H     7.721770    -4.894720    -0.756862
H    -1.735501     4.492165     7.706593
O    -0.837173     4.592465     8.092684
H    -0.658853     5.552021     8.118073
H    -5.121891     5.698397    -5.592672
O    -4.511967     4.936723    -5.612927
H    -3.755260     5.153251    -6.178746
H     3.300890    -2.500558    -8.433749
O     3.213018    -3.033297    -7.632713
H     4.089116    -3.008153    -7.202353
H    -0.674084     8.839994    -2.268720
O    -0.552921     9.668777    -1.749924
H     0.208576     9.495639    -1.171832
H     2.071873    -0.899314     5.215208
O     1.498974    -1.426011     5.801797
H     1.592837    -1.082191     6.699531
H     5.218290    -1.996461    -5.686955
O     5.568887    -2.759514    -6.211309
H     5.298956    -3.551438    -5.694660
H     5.712377    -5.191546     4.689139
O     5.188585    -5.108744     5.515302
H     4.469344    -5.743051     5.428262
H    -3.975578     1.143790     7.008202
O    -3.785329     1.619693     7.852423
H    -4.662624     2.002682     8.112969
H    -1.868579     9.624141    -0.736705
O    -2.728793     9.494989    -0.262872
H    -3.341668     10.121896    -0.650615
H    -5.951552     4.690030    -2.936295
O    -6.859527     4.569254    -3.281623
H    -6.766828     3.867301    -3.958886
H     0.119091    -7.050749    -1.145180
O     0.583841    -7.486255    -0.397709
H    -0.095038    -7.683053     0.250834
H    -7.639143     3.786835    -1.973421
O    -7.899374     3.198854    -1.233814
H    -7.753905     2.290655    -1.573747
H     3.977267    -0.875570     6.991478
O     3.983555     0.088665     6.983411
H     4.795422     0.380531     6.552287
H     2.249978     5.816325    -1.168011
O     3.187547     5.527319    -1.057628
H     3.361496     4.984449    -1.849084
H     6.573213    -5.899927     0.674050
O     6.205469    -6.638211     1.206469
H     5.300344    -6.363401     1.432977
H    -3.879704     4.726683     7.784817
O    -3.311465     4.265998     7.125729
H    -3.502226     3.321923     7.235495
H     5.789392    -7.918518     0.139526
O     5.501967    -8.607339    -0.496575
H     4.673767    -8.282137    -0.892823
H    -0.561544     2.047325     7.697581
O    -1.194295     1.982525     6.962115
H    -2.062520     1.837731     7.358052
H    -6.376734    -0.124958     1.060868
O    -6.696476    -0.207951     0.147725
H    -7.614346    -0.481700     0.165131
H    -5.357495    -3.063844    -0.590858
O    -5.107727    -2.361090     0.035320
H    -5.679642    -1.589713    -0.152418
H     4.307159     5.601804     0.330092
O     4.644176     5.703829     1.233914
H     3.948177     6.209294     1.689201
H    -9.031929    -1.752322    -2.257549
O    -8.485078    -1.549934    -1.471060
H    -8.610757    -2.287438    -0.833989
H    -5.522955     3.474528    -5.526008
O    -6.038866     2.762508    -5.111930
H    -5.371208     2.178281    -4.698080
H     3.189715    -0.867676    -5.647897
O     2.336056    -0.984253    -6.119931
H     2.422384    -1.834113    -6.591634
H     8.170605    -1.498747    -6.076996
O     8.122523    -2.348221    -5.606887
H     7.227844    -2.672031    -5.850260
H     7.663165     0.986521    -6.753783
O     7.390838     0.072752    -6.877370
H     6.402818     0.097078    -6.825997
H    -7.846010    -3.699234     0.925178
O    -8.524179    -3.593556     0.240348
H    -8.423633    -4.352424    -0.361680
H    -2.424221     8.743162     1.300870
O    -2.272205     8.154522     2.053542
H    -1.500565     7.603495     1.830795
H    -4.456528     6.435225     3.501763
O    -4.627139     6.861337     2.645360
H    -3.865247     7.449487     2.506919
H     3.399547     3.466928    -3.569909
O     3.248504     4.437620    -3.476303
H     2.283126     4.501704    -3.582598
H    -6.103494    -1.604842    -3.444172
O    -6.185368    -2.184689    -2.660581
H    -6.970533    -1.879947    -2.152288
H     6.467824     1.074323     4.748096
O     6.071619     1.613048     5.450305
H     6.259812     2.531540     5.159945
H     1.368176     1.742132    -5.817042
O     1.175226     1.145930    -5.062948
H     1.539241     0.283104    -5.333436
H    -2.497800     2.963090     10.487641
O    -2.283143     2.056193     10.213966
H    -2.879696     1.855509     9.480933
H     7.633077    -0.462718     3.085893
O     6.880895     0.107572     3.263874
H     6.192235    -0.498971     3.638748
H    -5.632852    -8.054374    -0.706707
O    -4.898367    -8.121805    -0.059799
H    -4.904285    -7.304815     0.462621
H    -5.168110    -0.114645    -4.715664
O    -5.783167    -0.827804    -4.956392
H    -6.622402    -0.388248    -5.154568
H     1.901316    -0.175207    -7.510882
O     1.700721     0.298702    -8.354214
H     2.276345    -0.107014    -9.007913
H     4.888150    -1.362469    -9.298243
O     3.963518    -1.131493    -9.581071
H     3.942813    -1.253193    -10.529636
H     7.574537    -2.542015     4.204024
O     7.722624    -2.574416     3.244803
H     7.232949    -3.365796     2.968983
H     6.740517    -5.866624     2.687636
O     6.798682    -5.193327     3.390860
H     7.675625    -5.274253     3.807351
H    -1.839768     8.954151     3.505400
O    -1.593121     9.259069     4.403923
H    -2.442426     9.388770     4.859302
H    -7.384676     1.566650    -5.251285
O    -7.957681     0.820851    -5.007109
H    -8.860512     1.218002    -4.931455
H     6.941979    -1.054550    -8.396811
O     6.357994    -1.773351    -8.661787
H     6.132170    -2.225996    -7.830472
H    -1.682111     6.255709    -7.016014
O    -2.076923     5.428542    -6.743796
H    -1.829241     5.297646    -5.780077
H    -0.007525     3.318195     9.029061
O     0.191719     2.398855     9.283849
H    -0.606307     2.132224     9.789439
H     6.774453    -2.743188    -2.694173
O     6.241966    -3.490104    -2.363844
H     6.717312    -4.298768    -2.605093
H    -4.061012    -3.066246    -4.944884
O    -4.214847    -2.953091    -5.909718
H    -4.764488    -2.161668    -5.965467
H     1.975320     2.195818     8.471577
O     2.638957     2.310771     7.781741
H     3.063860     1.441817     7.665919
H    -6.888242    -5.204039    -1.399835
O    -7.803069    -5.475529    -1.646132
H    -7.937068    -5.072882    -2.528956
H    -3.838426     5.256701     5.701595
O    -3.807109     6.025616     5.111285
H    -2.873943     6.322135     5.206336
H    -7.878049     0.083591    -1.967767
O    -7.390001     0.808749    -2.380666
H    -7.617596     0.797499    -3.334049
H     5.846135     0.159819     0.421536
O     5.610532     0.872591     1.048106
H     6.128841     0.681668     1.856688
H    -6.222583     3.304940     7.397918
O    -6.093971     2.786653     8.226397
H    -6.692099     2.023739     8.137253
H     2.304692    -8.054608    -0.842176
O     2.981189    -8.039323    -1.538759
H     2.758965    -8.754111    -2.151905
H    -2.725395    -3.950686    -6.197799
O    -1.970169    -4.514867    -5.966277
H    -1.695383    -4.223821    -5.068443
H    -5.650785     3.757926     5.311728
O    -6.301335     4.152644     5.928591
H    -6.139831     5.097052     5.916054
H    -0.993135    -7.101320    -3.165020
O    -0.523253    -6.430464    -2.636032
H     0.384967    -6.359181    -3.015217
H     4.442544     2.037122     5.136542
O     3.500568     2.275961     5.016111
H     3.115626     2.289076     5.897750
H     4.100057     4.676496     6.310893
O     4.179107     5.407364     5.693407
H     3.612400     5.165674     4.922263
H     2.759028     3.635241     3.931816
O     2.579632     4.575025     3.765402
H     2.460122     4.673045     2.799077
H     9.252376     0.423843    -0.951643
O     8.533094     0.500458    -0.316879
H     8.430796    -0.398349     0.043548
H    -2.115231     5.323087     10.656740
O    -2.835856     4.692666     10.887249
H    -3.055080     4.868678     11.802453
H     7.992547    -2.965404     0.323902
O     8.406485    -2.113673     0.571670
H     8.346425    -2.105425     1.533996
H     5.364224     3.688954     3.536026
O     6.020988     3.958501     4.199768
H     5.605139     4.672938     4.703991
H    -4.222095     5.020440     9.789290
O    -4.855168     5.170224     9.067006
H    -5.465044     4.419977     9.063714
H    -6.994344    -3.479274    -3.488215
O    -7.613168    -4.092152    -3.937506
H    -7.090551    -4.532696    -4.639522
H     0.011154     6.136343     10.778833
O    -0.853960     6.466128     10.531254
H    -0.738615     6.897287     9.665192
H     2.593316     1.518936    -4.099565
O     3.470054     1.874508    -3.858579
H     3.791937     1.355895    -3.089863
H    -6.970816    -0.225543     7.219155
O    -7.481597     0.551528     7.499534
H    -8.104797     0.733622     6.795110
H    -2.712170    -9.865952    -0.833275
O    -2.651588    -8.924093    -0.992841
H    -3.558441    -8.560077    -0.752382
H    -10.067274     3.068679    -4.898836
O    -10.182296     2.150740    -4.618837
H    -10.398813     2.233546    -3.669169
H    -2.057131    -3.018325     4.614991
O    -2.931332    -3.460132     4.683788
H    -2.923150    -4.077813     3.927396
H    -0.153635    -7.970936     2.484302
O     0.671639    -7.758480     2.933222
H     1.391484    -8.052000     2.347034
H     6.713422    -2.349449     6.398502
O     7.165523    -3.058409     5.936386
H     6.537206    -3.794468     5.895857
H    -5.265830    -2.005783     6.943320
O    -5.943122    -1.509071     6.459332
H    -5.925426    -1.885556     5.549946
H     0.846477     3.053860    -7.106851
O     1.764974     2.725142    -7.162674
H     1.750901     1.977549    -7.788641
H    -3.974845     8.757786     6.679245
O    -3.971970     8.756008     5.721877
H    -4.094990     7.828262     5.453756
H    -2.077374     10.324883    -2.728926
O    -2.979385     10.504125    -3.031009
H    -2.909342     11.138752    -3.743471
H     9.424366    -4.027475     4.048894
O     9.146408    -4.705573     4.672406
H     8.715697    -4.233389     5.395912
H    -0.711416    -5.981809    -5.840792
O    -0.007165    -6.547224    -5.507170
H     0.827646    -6.083831    -5.723577
H     1.809884     8.293342     0.674969
O     1.506689     8.614990    -0.202775
H     2.321621     8.655985    -0.732298
H     3.519023     2.956005    -6.648414
O     4.345975     2.669642    -6.234760
H     4.091124     2.388965    -5.329805
H     3.721539     7.149015    -1.220577
O     3.926761     8.085197    -1.433130
H     4.292147     8.032565    -2.327860
H     4.404617     0.018334    -7.903729
O     4.783968     0.172588    -7.036530
H     4.593862     1.102816    -6.793855
H     5.916481     1.927777    -0.401387
O     6.436537     2.163755    -1.189551
H     7.291373     1.726436    -0.998851
H     6.710293    -8.401879    -1.603532
O     7.344714    -8.190282    -2.340784
H     7.715127    -9.023442    -2.626894
H    -5.278627    -5.783887    -5.409969
O    -5.897228    -5.113174    -5.724741
H    -5.347714    -4.343605    -5.960836
H     0.666365     7.185250     7.609521
O    -0.235399     7.210784     7.968593
H    -0.790593     7.224210     7.150928
H    -8.882551    -2.838489    -4.104988
O    -9.405004    -2.031219    -3.937592
H    -9.120116    -1.365535    -4.567396
H    -2.388702    -5.978587    -2.144388
O    -3.267400    -5.694181    -2.413373
H    -3.453240    -6.069153    -3.299246
H    -2.963440    -5.890143    -5.410593
O    -3.562410    -6.501352    -4.939150
H    -3.078718    -7.320562    -4.772147
H    -1.387038     3.741298    -6.977797
O    -0.843494     2.987655    -6.707588
H    -1.079293     2.201862    -7.257201
H    -0.194239     0.435813    -8.211983
O    -1.090694     0.669571    -7.928731
H    -1.265821     0.144581    -7.131665
H    -10.425351     4.044161    -2.734194
O    -10.491322     3.265030    -2.166548
H    -9.662156     3.240165    -1.657265
H     4.577928     4.103227     1.728672
O     4.367548     3.182555     2.004784
H     5.085829     2.605559     1.731229
H     6.349030     1.450058    -4.204454
O     6.171730     0.768890    -3.526041
H     6.064448     1.250940    -2.675496
H     9.660129    -2.253666    -0.954874
O     9.976307    -1.997321    -1.831307
H     9.180196    -1.614775    -2.258849
H     9.980178    -3.302768    -3.084268
O     9.717179    -3.946851    -3.770473
H     9.324239    -3.428541    -4.483290
H    -7.671282    -8.577853    -1.671111
O    -6.934911    -7.981591    -1.798974
H    -7.314780    -7.069527    -1.788729
H     4.149663     6.108125    -3.814078
O     4.809148     6.811409    -3.732442
H     5.646225     6.363577    -3.583564
H     0.125655    -8.153543    -5.215927
O     0.151316    -9.136466    -5.084800
H     0.304201    -9.499220    -5.957361
H    -2.304548    -8.663499    -2.718101
O    -2.071729    -8.398763    -3.627627
H    -1.422962    -9.014982    -3.986430
H     2.216989    -10.795716    -3.496425
O     2.168181    -9.841347    -3.471353
H     1.382570    -9.572100    -3.997881
H     6.611488     3.470971    -4.448777
O     6.825215     2.853631    -5.192246
H     6.044881     2.929491    -5.767474
H    -3.553518    -3.720921     7.720872
O    -3.669897    -2.933211     7.191128
H    -3.417314    -3.171063     6.272827
H    -0.620338    -3.345966    -6.722789
O     0.007354    -2.612287    -6.730496
H    -0.476741    -1.838749    -6.387912
H     0.641235     0.472229     8.757496
O     0.650981    -0.241889     8.116239
H    -0.270325    -0.533437     8.027968
H    -5.844234     7.370921    -4.247064
O    -6.345049     6.751112    -4.808869
H    -6.630689     6.019099    -4.218276
H    -4.293663     9.109624    -3.256794
O    -4.827119     8.311862    -3.151577
H    -4.418249     7.833041    -2.412486
H    -9.717453     5.791071    -4.644687
O    -10.248825     4.984985    -4.481765
H    -11.129829     5.183735    -4.800804
H     2.754857     6.533278     6.149502
O     1.794421     6.627681     6.246157
H     1.453196     5.713347     6.144016
H     4.788341     8.573418     0.096207
O     5.107224     8.575175     1.016407
H     5.512611     7.710331     1.148657
H     4.168655    -7.399254    -4.340800
O     3.411305    -7.685921    -4.883437
H     3.133652    -8.527831    -4.507539
H     0.359227     8.672746     4.243178
O     1.038993     8.030298     4.014955
H     1.266102     7.537265     4.829444
H     5.089055     4.312341    -3.098251
O     6.051792     4.293253    -2.999013
H     6.204608     3.702554    -2.235462
H    -2.572363    -1.540614     7.574839
O    -2.064436    -0.746004     7.795486
H    -2.692115    -0.121836     8.169974
H    -9.039348     7.932291    -4.143374
O    -8.974175     7.348438    -4.900552
H    -8.016630     7.186743    -5.035173
H     3.558261    -8.956965     1.090509
O     2.879447    -8.327836     1.340386
H     3.351816    -7.521223     1.620773
H     3.568360     8.195210     1.841664
O     2.779710     7.629091     1.951460
H     2.331323     7.862313     2.777258
N     9.156156     1.968685    -3.044580
H     8.623278     2.096983    -3.838481
H     9.726762     2.741366    -3.016251
