39
Coordinates from ORCA-job grain_mol_opt.QMRegion
  H   1.73648441642724     -4.66425584064578     -0.19613222374938
  O   1.83889330650215     -5.32344549053123      0.53385606953847
  H   1.32489440385440     -6.10129286778026      0.25570693031310
  H   2.40673182068131     -6.41009174189898     -4.04147682922135
  O   2.05887857742910     -6.12014858374184     -3.18115605278744
  H   2.50268892623790     -6.71061813648769     -2.52897657981238
  H   -2.27184101783912     -7.95012545590568      0.68550347024056
  O   -1.85939834179232     -7.45734375651366      1.42202752543603
  H   -2.59064148241552     -7.02729361130395      1.88147149537591
  H   0.02733131942941     -7.15825505658896     -1.13373993438130
  O   0.41274629712986     -7.60816806444103     -0.32882334940662
  H   -0.28303558185387     -7.50328972641817      0.33521268361909
  H   2.67204897526014     -8.10487599562214     -0.65234780984307
  O   3.08705259578936     -8.00970048114217     -1.52519060300145
  H   2.74928811670300     -8.74610120076849     -2.07909115734646
  H   -0.94619571385885     -7.13640264215763     -3.12816852945135
  O   -0.46009526665893     -6.48140246689237     -2.58413495822367
  H   0.42719846876610     -6.38102708321350     -3.01842093510403
  H   -2.42655093473766     -9.71578428854801     -0.72946116487072
  O   -2.60877053465353     -8.79359245336456     -0.94057892802829
  H   -3.56099912467539     -8.63467907213305     -0.68391919162248
  H   -0.10367064437428     -8.05899444175454      2.71148521189178
  O   0.74492281509600     -7.78393394179040      3.07490888276751
  H   1.43135065974961     -8.11344077337976      2.46933862541805
  H   0.17643042333319     -8.16177461708321     -5.33994581397944
  O   0.22559789487377     -9.13751903579280     -5.17967638433763
  H   0.47241946729246     -9.51096396694066     -6.03040771136398
  H   -2.33346577330415     -8.74505487208275     -2.81512845199048
  O   -2.01640974917903     -8.40980900167171     -3.67429585658436
  H   -1.47964771045516     -9.08037845108793     -4.11418773708574
  H   1.30304542352165    -10.23465320234703     -2.43771062947975
  O   1.93791136392131     -9.92392465599887     -3.10973730505201
  H   1.36809008506854     -9.62015434227932     -3.84472511486283
  H   3.77355659254487     -8.91122364194943      1.26750639756575
  O   3.03708902886923     -8.29869518007188      1.36357707897819
  H   3.46906688221104     -7.46142443715570      1.66020194378505
  O   0.12503512546083    -10.25576302584103     -0.94297784727825
  H   0.25385334240683     -9.31102667468855     -0.67672301963438
  H   0.51705764862313    -10.77531996525654     -0.23515320272506
