603

H     0.197887     3.015289    -0.677425
O     0.720973     2.347053    -1.170398
H     1.660025     2.476916    -0.897766
H    -0.066968    -1.309708     3.168244
O     0.322922    -0.610118     2.621420
H    -0.156013     0.203045     2.852916
H    -2.401167     2.391607    -0.527941
O    -2.188444     1.924876     0.297536
H    -2.202344     0.976013     0.076173
H    -4.658101     0.534959     2.200243
O    -4.975280    -0.398230     2.216176
H    -4.469388    -0.878751     1.552553
H     0.067659    -0.318633     0.966361
O    -0.132326    -0.083404     0.039611
H     0.207715     0.812396    -0.083796
H    -0.142521    -3.576960     3.803096
O    -0.421080    -2.745602     4.221628
H     0.226243    -2.572901     4.921743
H    -4.885600     2.515383     1.341693
O    -4.244644     2.109371     1.956966
H    -3.402622     2.090315     1.442925
H    -3.257326     3.872523    -2.206435
O    -2.518374     3.277859    -1.974887
H    -2.160791     2.988122    -2.834285
H    -0.117551    -3.816340     0.530222
O     0.222190    -2.996309     0.944286
H    -0.565592    -2.510734     1.255763
H    -2.370668    -1.546384     2.491131
O    -2.183026    -2.015191     1.651627
H    -2.442212    -1.430940     0.920136
H     2.073121    -1.460656    -1.107714
O     2.306796    -1.706572    -0.189236
H     1.519855    -2.136367     0.197349
H    -1.387727     1.816287     1.920181
O    -1.478672     1.421903     2.797734
H    -1.463201     2.136384     3.460309
H     0.209665    -2.722907    -1.551219
O    -0.543685    -2.107937    -1.604111
H    -0.363146    -1.383647    -0.968722
H    -3.431283    -2.943837    -0.368963
O    -2.718912    -3.433918    -0.799447
H    -2.005553    -2.805265    -1.011785
H     2.778318     0.128973     2.940713
O     2.879477    -0.049420     3.902946
H     2.970319     0.844995     4.304002
H    -3.537282     6.360123    -0.547560
O    -3.301592     7.020310    -1.251072
H    -3.159418     7.867267    -0.784206
H     3.904157     0.578575     1.189464
O     2.953827     0.396982     1.307379
H     2.716326    -0.358283     0.731630
H    -5.783941     0.815226    -1.581894
O    -4.873872     1.146176    -1.464165
H    -4.983666     1.976107    -0.954696
H    -1.213744     5.389987     2.205324
O    -1.838195     4.641900     2.092177
H    -1.913707     4.225661     2.956106
H     3.491697     2.754402     0.421319
O     3.242288     2.708134    -0.517316
H     3.575064     1.864525    -0.865256
H     1.491395    -4.716018    -2.224836
O     1.557041    -3.936170    -1.654542
H     2.350652    -3.477404    -2.009687
H    -0.921370    -0.112823    -2.526418
O    -0.297163     0.544950    -2.858890
H    -0.030878     1.128329    -2.124831
H     1.705386    -4.698301    -0.153950
O     1.814185    -5.331337     0.591907
H     1.351828    -6.144667     0.299108
H    -1.226093    -3.288999    -2.858479
O    -1.056221    -3.972469    -3.519365
H    -0.917599    -4.814365    -3.044717
H    -2.775708     3.308766     4.709902
O    -1.794547     3.307844     4.674087
H    -1.499511     2.908908     5.510939
H     0.963592     5.036977     4.068317
O     0.017292     5.268221     4.121214
H    -0.453078     4.465324     4.382965
H    -1.726035    -4.668508    -0.346374
O    -0.959103    -5.200839    -0.050755
H    -1.305323    -5.891445     0.523823
H    -3.928928     5.804156    -2.599056
O    -4.279933     4.969296    -2.926800
H    -4.124171     4.931263    -3.894493
H    -2.421645    -3.699735     1.965905
O    -2.438838    -4.601490     2.347195
H    -1.498365    -4.839322     2.484112
H    -4.717183    -2.994052    -2.903554
O    -3.893342    -3.260438    -3.359547
H    -3.524947    -4.008607    -2.845696
H     0.346781     1.380302     4.621538
O     0.850309     2.140437     4.283932
H     0.900277     2.801460     4.988746
H    -4.643068    -5.184420    -1.533368
O    -5.352270    -4.840107    -0.961632
H    -5.136681    -5.191394    -0.077099
H     2.319849    -6.506866    -4.003259
O     2.001321    -6.169492    -3.146334
H     2.433996    -6.747900    -2.487141
H     0.421430    -3.444496    -4.034815
O     1.236302    -3.063340    -4.428550
H     0.915516    -2.680315    -5.266395
H     1.971731    -1.753646     2.996558
O     2.128197    -2.685036     2.782702
H     1.441566    -2.902690     2.117574
H    -3.011018    -1.857472    -3.210185
O    -2.604083    -0.965170    -3.121949
H    -3.263388    -0.323531    -3.439322
H    -3.193995     4.961869     1.079705
O    -3.977059     5.332888     0.625385
H    -4.391358     5.892708     1.330612
H     0.878550     2.250216     2.593306
O     0.978148     2.242604     1.621954
H     1.705422     1.619329     1.458952
H     0.182660     5.640688    -0.766968
O     0.701956     6.301567    -1.279573
H     0.844592     7.103345    -0.726795
H     0.339790     7.032123     2.576965
O    -0.023458     6.648550     1.761526
H     0.640694     5.977551     1.501362
H    -2.473582     0.210844     3.356988
O    -2.693975    -0.601324     3.865404
H    -1.931983    -0.638405     4.485463
H    -0.883085     0.560587     6.037367
O    -0.609817     0.039503     5.263868
H     0.104921    -0.562515     5.550960
H     0.719308    -5.000443     2.008241
O     0.179841    -5.106663     2.815187
H     0.325350    -6.026473     3.089839
H    -2.104339    -8.103364     0.495797
O    -1.782936    -7.610294     1.278646
H    -2.570121    -7.299194     1.733143
H    -0.391727     6.841120    -2.337422
O    -1.139876     7.257913    -2.837055
H    -1.928378     7.132901    -2.271132
H    -1.116797     4.296601     0.572920
O    -0.746060     4.355352    -0.324250
H    -1.453643     4.109617    -0.954001
H    -4.405781     2.740676     3.517659
O    -4.403099     2.914791     4.481555
H    -4.484158     2.033043     4.894050
H     2.036602    -3.578649     4.265628
O     1.974755    -4.046924     5.121189
H     2.483041    -3.507542     5.748408
H     4.693987    -3.199449     0.854201
O     4.532021    -3.126115    -0.112217
H     3.671567    -2.651910    -0.195760
H    -2.725468    -0.776004    -1.330776
O    -3.048555    -0.496224    -0.457708
H    -3.850502     0.026312    -0.665386
H    -1.561680    -0.764970    -4.529195
O    -1.096360    -0.474326    -5.337826
H    -0.384540     0.111194    -5.019545
H     1.785297    -1.742779    -3.364735
O     1.882234    -0.992612    -2.746932
H     1.104271    -0.416518    -2.875698
H     3.672212    -3.122303     2.567152
O     4.631498    -3.350037     2.493614
H     4.686847    -4.310094     2.622157
H     3.440073    -6.119104     3.150789
O     3.794180    -5.919471     2.249888
H     3.054626    -5.579484     1.705898
H    -3.350916     1.574989    -4.165588
O    -4.198670     1.109813    -3.971321
H    -4.411743     1.256684    -3.013383
H    -5.085882     4.128298     0.073746
O    -5.523710     3.261558    -0.027906
H    -6.455254     3.379233    -0.305502
H     6.733135    -1.193536    -1.359076
O     5.961663    -1.041697    -0.806767
H     5.543959    -1.909284    -0.604580
H     4.591907    -3.186938    -2.456583
O     3.723842    -3.017168    -2.872953
H     3.726963    -3.641470    -3.625056
H     4.448765    -2.281887     5.633808
O     4.108419    -2.744533     6.429745
H     4.443706    -3.649705     6.350323
H    -0.751803     6.341546     5.065810
O    -1.348197     6.918782     5.602835
H    -1.363350     7.794164     5.158216
H     4.696012    -0.150437    -1.462896
O     3.926899     0.389396    -1.726665
H     3.235493    -0.214075    -2.053038
H    -0.755712     4.493658    -4.040340
O    -1.538931     5.035598    -4.249745
H    -1.387665     5.903647    -3.829849
H     0.651123     3.181100    -2.658922
O     0.654878     3.553904    -3.569294
H     0.704802     2.788010    -4.151344
H    -5.373822    -5.206355     1.834130
O    -4.677238    -5.801584     1.480180
H    -3.836459    -5.384212     1.747737
H     7.875672    -1.710565    -4.030783
O     7.620237    -1.393583    -3.131772
H     7.131811    -0.551210    -3.290249
H     3.698806    -5.093523    -5.266581
O     4.465137    -4.722793    -4.787141
H     4.846597    -5.434804    -4.240934
H    -3.774507     0.018282     4.954138
O    -4.374714     0.483953     5.586279
H    -5.033453    -0.174086     5.881621
H     3.469677    -5.954933    -0.496128
O     4.344397    -5.707972    -0.808657
H     4.417333    -4.744619    -0.672098
H     4.996090    -0.360206    -4.152671
O     4.462613    -1.073992    -4.540219
H     4.135873    -1.656181    -3.821258
H    -1.188368     1.547640    -3.920970
O    -1.837651     2.166421    -4.311739
H    -1.480764     2.488878    -5.161800
H     4.888842    -6.339037    -2.287457
O     5.222403    -6.665103    -3.152213
H     6.039862    -7.146381    -2.964755
H     8.741094    -5.107530    -2.904280
O     8.052018    -5.523208    -2.342074
H     8.086132    -6.480929    -2.440934
H     2.333809     4.709832     0.442018
O     1.755618     4.694474     1.214000
H     1.399978     3.773799     1.296356
H    -4.404045    -2.638084     4.261445
O    -5.298805    -2.299650     4.060206
H    -5.163955    -1.521019     3.480990
H    -5.840000    -3.211638     1.351535
O    -6.302426    -3.765156     2.023337
H    -6.111458    -3.326902     2.871767
H     1.695643     3.482102     6.858633
O     1.071057     3.995193     6.324277
H     0.288934     4.149063     6.896775
H     5.010241    -2.164568     3.626804
O     5.031363    -1.443330     4.287903
H     4.218492    -0.888936     4.130702
H     2.405740    -5.570320     4.866636
O     2.787037    -6.454356     4.609919
H     2.042772    -7.037397     4.437386
H     2.266082    -4.532181    -6.774603
O     2.104739    -5.023345    -5.959722
H     1.812581    -4.341564    -5.306526
H     6.443448    -4.112291    -0.488352
O     7.198919    -4.511143    -0.025114
H     7.704708    -4.936815    -0.745280
H    -1.715899     4.502789     7.699854
O    -0.816545     4.603642     8.083374
H    -0.636734     5.563061     8.103627
H    -5.135684     5.653426    -5.595437
O    -4.528505     4.889581    -5.615982
H    -3.771320     5.103175    -6.182453
H     3.272884    -2.557843    -8.423640
O     3.182487    -3.092175    -7.623952
H     4.057552    -3.070280    -7.192030
H    -0.674770     8.803835    -2.298012
O    -0.551964     9.634487    -1.782697
H     0.211587     9.463222    -1.206600
H     2.077377    -0.904669     5.222838
O     1.506013    -1.428318     5.813597
H     1.602040    -1.079922     6.709338
H     5.197783    -2.055105    -5.683663
O     5.542548    -2.822320    -6.204737
H     5.270316    -3.611039    -5.683113
H     5.710305    -5.204414     4.706534
O     5.189846    -5.117136     5.534178
H     4.468761    -5.750123     5.452035
H    -3.962254     1.154081     7.022558
O    -3.769194     1.633624     7.864139
H    -4.645295     2.018861     8.125245
H    -1.864290     9.595998    -0.766151
O    -2.723767     9.470250    -0.289781
H    -3.336286     10.096939    -0.678400
H    -5.959918     4.658272    -2.932450
O    -6.869118     4.536148    -3.274496
H    -6.778672     3.831966    -3.949360
H     0.103265    -7.084056    -1.110268
O     0.567943    -7.512025    -0.357404
H    -0.111751    -7.707558     0.290570
H    -7.646334     3.760468    -1.960529
O    -7.906834     3.176588    -1.217837
H    -7.762123     2.266377    -1.552211
H     3.987508    -0.875568     6.994096
O     3.995253     0.088605     6.981872
H     4.806166     0.377614     6.547087
H     2.248759     5.780384    -1.193912
O     3.184963     5.489703    -1.080577
H     3.360735     4.946440    -1.871807
H     6.558843    -5.933626     0.693832
O     6.192765    -6.667405     1.232593
H     5.287494    -6.391255     1.457834
H    -3.859665     4.740351     7.782735
O    -3.293809     4.275954     7.124244
H    -3.485410     3.332610     7.238791
H     5.770982    -7.952099     0.168614
O     5.483794    -8.642473    -0.465302
H     4.652202    -8.321571    -0.858947
H    -0.545242     2.056362     7.698850
O    -1.180043     1.988989     6.965423
H    -2.047396     1.847038     7.364279
H    -6.378442    -0.139213     1.086000
O    -6.704125    -0.222419     0.174827
H    -7.621141    -0.498422     0.198895
H    -5.365667    -3.086849    -0.556225
O    -5.118366    -2.381944     0.069299
H    -5.689039    -1.611348    -0.122993
H     4.311242     5.570262     0.302734
O     4.646876     5.675304     1.206774
H     3.952328     6.185853     1.658601
H    -9.046837    -1.778463    -2.215045
O    -8.495041    -1.574790    -1.432659
H    -8.621525    -2.308006    -0.790448
H    -5.539523     3.433118    -5.517944
O    -6.054067     2.721289    -5.101445
H    -5.384531     2.142157    -4.683218
H     3.183576    -0.915583    -5.641917
O     2.327096    -1.026833    -6.108199
H     2.396129    -1.880538    -6.575039
H     8.102778    -1.378150    -6.028390
O     8.112947    -2.240319    -5.568643
H     7.256468    -2.642354    -5.815430
H     7.607124     0.961327    -6.315849
O     7.418999     0.111606    -6.726465
H     6.437601     0.059794    -6.760220
H    -7.854922    -3.710159     0.971500
O    -8.535418    -3.607895     0.288322
H    -8.435818    -4.369685    -0.310427
H    -2.415500     8.725522     1.276820
O    -2.262765     8.140047     2.031806
H    -1.492244     7.587008     1.809903
H    -4.445223     6.430355     3.493572
O    -4.617715     6.852827     2.635724
H    -3.855281     7.439184     2.492456
H     3.388796     3.422999    -3.584991
O     3.234107     4.392483    -3.495380
H     2.268972     4.455338    -3.601117
H    -6.124600    -1.634615    -3.397749
O    -6.197390    -2.227258    -2.624637
H    -6.979805    -1.925743    -2.109885
H     6.475133     1.061356     4.734993
O     6.082035     1.602726     5.436514
H     6.268525     2.520348     5.141381
H     1.348205     1.687754    -5.819343
O     1.155725     1.095224    -5.061990
H     1.522282     0.231300    -5.329648
H    -2.472978     2.987432     10.489739
O    -2.260264     2.078968     10.219778
H    -2.858895     1.875687     9.489148
H     7.633065    -0.491374     3.082259
O     6.882929     0.084341     3.250640
H     6.192086    -0.515526     3.633595
H    -5.651315    -8.076301    -0.647262
O    -4.916988    -8.142449    -0.000256
H    -4.919557    -7.322175     0.516970
H    -5.228377    -0.062720    -4.573071
O    -5.851287    -0.767759    -4.841078
H    -6.696814    -0.306342    -4.994937
H     1.867302    -0.240887    -7.506533
O     1.663294     0.227258    -8.352401
H     2.245148    -0.175869    -9.002176
H     4.854839    -1.434553    -9.295367
O     3.929492    -1.206229    -9.578912
H     3.908683    -1.332220    -10.526800
H     7.574454    -2.559827     4.207018
O     7.719471    -2.598980     3.247391
H     7.226814    -3.391661     2.979371
H     6.731483    -5.889581     2.706106
O     6.794961    -5.211902     3.405019
H     7.671770    -5.295562     3.820833
H    -1.825380     8.945682     3.478912
O    -1.576404     9.254449     4.375484
H    -2.424484     9.387181     4.832237
H    -7.406057     1.541305    -5.227592
O    -7.978694     0.794440    -4.984791
H    -8.882451     1.189786    -4.903194
H     6.908340    -1.122939    -8.401787
O     6.325867    -1.844836    -8.661936
H     6.100197    -2.292355    -7.827816
H    -1.699793     6.197481    -7.031228
O    -2.095311     5.372399    -6.753666
H    -1.844498     5.246301    -5.789733
H     0.013893     3.332552     9.023040
O     0.212677     2.414166     9.281657
H    -0.584454     2.150872     9.790402
H     6.753122    -2.797048    -2.695770
O     6.223937    -3.539591    -2.349675
H     6.690637    -4.351669    -2.595547
H    -4.166669    -3.109738    -5.067387
O    -4.489441    -2.889794    -5.974008
H    -5.026391    -2.088085    -5.817172
H     1.993533     2.205190     8.465448
O     2.655796     2.316028     7.773607
H     3.078872     1.445859     7.660506
H    -6.903538    -5.228449    -1.350875
O    -7.820974    -5.498726    -1.590293
H    -7.959923    -5.100329    -2.473781
H    -3.822926     5.260951     5.697001
O    -3.792337     6.027243     5.103255
H    -2.858448     6.322876     5.194273
H    -7.888648     0.054528    -1.937044
O    -7.403182     0.779122    -2.354539
H    -7.636854     0.767253    -3.305421
H     5.837055     0.124715     0.412188
O     5.615773     0.848607     1.030680
H     6.127858     0.656931     1.843338
H    -6.205506     3.319924     7.408388
O    -6.075457     2.805340     8.238957
H    -6.674631     2.042672     8.154802
H     2.279868    -8.088397    -0.807411
O     2.962089    -8.081190    -1.498477
H     2.734495    -8.792661    -2.114493
H    -2.100778    -4.498426    -6.539637
O    -1.955890    -5.107527    -5.786251
H    -1.682466    -4.550918    -5.030402
H    -5.638547     3.762548     5.318915
O    -6.287125     4.161102     5.935440
H    -6.123687     5.105119     5.918770
H    -1.021858    -7.135046    -3.126879
O    -0.545194    -6.471575    -2.594702
H     0.357472    -6.399879    -2.987354
H     4.451508     2.028476     5.124881
O     3.509504     2.267050     5.005924
H     3.126953     2.285309     5.888525
H     4.115897     4.673190     6.287571
O     4.194333     5.401256     5.666718
H     3.625490     5.156931     4.897924
H     2.767530     3.623009     3.916397
O     2.588467     4.562214     3.746793
H     2.467003     4.656504     2.780233
H     9.389882     0.203490    -1.078680
O     8.585414     0.368532    -0.583261
H     8.410821    -0.448838    -0.087144
H    -2.086714     5.347694     10.647129
O    -2.807551     4.719293     10.882496
H    -3.024022     4.899767     11.797483
H     7.976124    -3.012168     0.335107
O     8.396952    -2.163987     0.586369
H     8.333036    -2.155852     1.548771
H     5.372676     3.671624     3.512990
O     6.030109     3.940997     4.176427
H     5.617337     4.660157     4.676452
H    -4.196285     5.043726     9.786740
O    -4.831255     5.191031     9.065612
H    -5.441902     4.441404     9.067290
H    -7.017818    -3.519665    -3.446220
O    -7.649703    -4.122677    -3.890529
H    -7.144826    -4.564635    -4.606314
H     0.040951     6.158657     10.759937
O    -0.824367     6.488559     10.513224
H    -0.710749     6.915444     9.644797
H     2.579249     1.468324    -4.103313
O     3.456927     1.824478    -3.867636
H     3.780003     1.312184    -3.096325
H    -6.958439    -0.210419     7.247796
O    -7.467670     0.568464     7.526075
H    -8.092380     0.748126     6.822367
H    -2.731790    -9.894929    -0.765947
O    -2.669145    -8.953384    -0.926040
H    -3.575970    -8.587354    -0.690143
H    -10.083752     3.033020    -4.876278
O    -10.198827     2.116414    -4.591654
H    -10.412132     2.204080    -3.641417
H    -2.055930    -3.021063     4.643076
O    -2.930472    -3.461347     4.716330
H    -2.924782    -4.082365     3.962379
H    -0.164852    -7.984658     2.529353
O     0.661505    -7.772345     2.976595
H     1.379534    -8.069253     2.389923
H     6.720037    -2.355968     6.401057
O     7.170021    -3.066958     5.939919
H     6.540855    -3.802695     5.904916
H    -5.256774    -1.994035     6.975249
O    -5.934774    -1.498600     6.490923
H    -5.919715    -1.879126     5.583085
H     0.816426     2.989933    -7.116838
O     1.734099     2.660113    -7.174097
H     1.719355     1.907923    -7.794751
H    -3.951901     8.766508     6.659344
O    -3.952665     8.760381     5.701986
H    -4.076907     7.831445     5.438534
H    -2.078031     10.288110    -2.760695
O    -2.980311     10.467343    -3.062120
H    -2.910321     11.099263    -3.776989
H     9.422350    -4.047266     4.053641
O     9.146238    -4.722890     4.680535
H     8.716419    -4.248086     5.402874
H    -0.564033    -6.202514    -5.700303
O     0.201261    -6.678224    -5.338769
H     1.000193    -6.229822    -5.678115
H     1.816397     8.267406     0.640611
O     1.510949     8.585403    -0.237674
H     2.324537     8.621922    -0.769934
H     3.479591     2.893919    -6.668252
O     4.308654     2.607759    -6.259316
H     4.066056     2.336281    -5.349014
H     3.721735     7.111501    -1.253005
O     3.925913     8.046574    -1.470970
H     4.293488     7.986943    -2.364743
H     4.377496    -0.047206    -7.906658
O     4.760227     0.105094    -7.040819
H     4.575206     1.036801    -6.799680
H     6.026836     1.924524    -0.482316
O     6.590394     2.116157    -1.245825
H     7.415705     1.637536    -1.052075
H     6.689470    -8.443280    -1.573180
O     7.325732    -8.235240    -2.310424
H     7.686641    -9.071347    -2.600242
H    -5.565927    -5.864574    -5.389184
O    -6.147718    -5.218493    -5.816792
H    -5.579354    -4.447368    -5.990614
H     0.689183     7.192053     7.584276
O    -0.211613     7.220489     7.945618
H    -0.768868     7.230942     7.129281
H    -8.906965    -2.870122    -4.054351
O    -9.427315    -2.059176    -3.894571
H    -9.140748    -1.400170    -4.530317
H    -2.402424    -6.009604    -2.117249
O    -3.280848    -5.708520    -2.367761
H    -3.523546    -6.132037    -3.219017
H    -3.190929    -6.193810    -5.211448
O    -3.841348    -6.757080    -4.738481
H    -3.345946    -7.557243    -4.491342
H    -1.410346     3.682366    -6.981785
O    -0.870940     2.926204    -6.710265
H    -1.108772     2.140925    -7.259209
H    -0.131066     0.448239    -8.211121
O    -1.066388     0.657225    -8.029571
H    -1.274233     0.150208    -7.230269
H    -10.434414     4.018568    -2.715106
O    -10.499100     3.240228    -2.146287
H    -9.669504     3.217137    -1.637397
H     4.578855     4.079456     1.707544
O     4.371481     3.159601     1.990058
H     5.087065     2.582785     1.709799
H     6.474780     1.376515    -4.225218
O     6.173793     0.755435    -3.527816
H     6.206419     1.254044    -2.685969
H     9.632499    -2.232135    -0.928330
O     9.907433    -2.019454    -1.829062
H     9.105302    -1.684909    -2.272497
H     9.965594    -3.334448    -3.093889
O     9.698742    -3.989522    -3.765865
H     9.301559    -3.485754    -4.486893
H    -7.694268    -8.602025    -1.601722
O    -6.957357    -8.007900    -1.735922
H    -7.334829    -7.095096    -1.728719
H     4.144802     6.057554    -3.840850
O     4.805087     6.760129    -3.760573
H     5.642118     6.307874    -3.622419
H     0.131065    -8.235900    -5.121708
O     0.106747    -9.230158    -4.995622
H     0.254782    -9.584121    -5.872125
H    -2.316982    -8.706757    -2.658510
O    -2.121613    -8.440907    -3.575334
H    -1.459692    -9.035856    -3.949756
H     2.193609    -10.839062    -3.440752
O     2.146971    -9.884438    -3.423900
H     1.350689    -9.622069    -3.943449
H     6.821159     3.307916    -4.589405
O     6.879016     2.627311    -5.287896
H     6.083927     2.756513    -5.827106
H    -3.544951    -3.707894     7.755754
O    -3.661411    -2.922245     7.222980
H    -3.411787    -3.164610     6.304946
H    -0.584795    -2.758171    -7.362939
O     0.118266    -2.317039    -6.872611
H    -0.364291    -1.640053    -6.353948
H     0.657925     0.484682     8.762678
O     0.665286    -0.232524     8.124836
H    -0.256626    -0.523260     8.040055
H    -5.851830     7.333185    -4.255994
O    -6.355371     6.711258    -4.813213
H    -6.640421     5.983009    -4.217915
H    -4.297010     9.073539    -3.277972
O    -4.831418     8.277071    -3.167603
H    -4.421108     7.801252    -2.427291
H    -9.728843     5.754981    -4.636789
O    -10.260590     4.949766    -4.470441
H    -11.143073     5.149937    -4.784474
H     2.772911     6.530888     6.121512
O     1.812900     6.626887     6.220943
H     1.470181     5.712670     6.123143
H     4.792939     8.540750     0.052725
O     5.112352     8.545908     0.972932
H     5.520278     7.682498     1.106727
H     4.140330    -7.452344    -4.306496
O     3.385582    -7.739003    -4.851606
H     3.098771    -8.576023    -4.471254
H     0.375029     8.664914     4.212389
O     1.053060     8.020320     3.985178
H     1.281934     7.530767     4.801209
H     5.222793     4.171715    -3.172452
O     6.184378     4.143966    -3.121358
H     6.395838     3.565468    -2.371906
H    -2.561083    -1.529539     7.597428
O    -2.051579    -0.734647     7.813519
H    -2.677639    -0.108000     8.186566
H    -9.047333     7.898362    -4.146321
O    -8.984558     7.310177    -4.900352
H    -8.027406     7.147780    -5.036944
H     3.540654    -8.983206     1.127934
O     2.865386    -8.352983     1.384451
H     3.340542    -7.545141     1.655194
H     3.577542     8.171312     1.802086
O     2.787640     7.607725     1.918039
H     2.343217     7.845811     2.744459
N    -2.517674    -3.242010    -7.727904
H    -2.918830    -3.522754    -8.554859
H    -3.269945    -2.948429    -7.150829
