18
Coordinates from ORCA-job grain_mol_opt.QMRegion
  H   -2.12814854226861     -8.00644068918217      0.44067403584550
  O   -1.73459892617824     -7.54854806343536      1.21399121496482
  H   -2.46506980563673     -7.21225748474980      1.73666193463164
  H   -5.91446682050720     -7.97866623265816     -0.54211952642638
  O   -5.04711113891219     -8.03736478230743     -0.06971758991805
  H   -5.01207514155660     -7.27044872938603      0.53121236710021
  H   -2.88814355537369     -9.64826421043002     -0.75380005097178
  O   -2.65024726386476     -8.77848569179156     -1.12439168694658
  H   -3.51200751071163     -8.31360202745605     -1.05489198057982
  H   -8.11365940511760     -8.36444648813381     -0.90341554837438
  O   -7.38550484894806     -8.02569246773066     -1.43194434986196
  H   -7.63298023793142     -7.07675349022960     -1.58856578829847
  H   -2.20208594346881     -8.74831591654531     -2.89661704722643
  O   -1.99016007059807     -8.40766468177536     -3.78604574398852
  H   -1.30606989180282     -8.96110177827606     -4.18990457939415
  O   -3.99478277139706    -10.58645704397165      0.48156209487195
  H   -4.58612529701994     -9.80777676214475      0.47388264329487
  H   -4.54999979066723    -11.32470049161941      0.21665701980122
