603

H     0.217033     3.024761    -0.669562
O     0.739459     2.357033    -1.163706
H     1.678346     2.484036    -0.890684
H    -0.060597    -1.318187     3.156063
O     0.328427    -0.616487     2.610908
H    -0.148639     0.196016     2.847410
H    -2.383059     2.406653    -0.526822
O    -2.172060     1.935577     0.296767
H    -2.189520     0.987717     0.071032
H    -4.647752     0.543149     2.190353
O    -4.966375    -0.389505     2.202345
H    -4.461914    -0.867646     1.535959
H     0.076912    -0.317552     0.957565
O    -0.121285    -0.078157     0.031308
H     0.220445     0.817453    -0.088357
H    -0.143728    -3.587096     3.781187
O    -0.422130    -2.756443     4.201282
H     0.225374    -2.590655     4.903579
H    -4.869777     2.527840     1.340603
O    -4.230059     2.118017     1.954895
H    -3.388001     2.098866     1.441072
H    -3.232019     3.896954    -2.200678
O    -2.494251     3.299912    -1.970446
H    -2.137237     3.011438    -2.830610
H    -0.115779    -3.812702     0.505803
O     0.224413    -2.994501     0.921916
H    -0.561933    -2.509017     1.237073
H    -2.365003    -1.545559     2.475440
O    -2.178186    -2.010505     1.633677
H    -2.434938    -1.421908     0.904940
H     2.083690    -1.451843    -1.117014
O     2.315525    -1.703758    -0.199574
H     1.527101    -2.132872     0.184311
H    -1.375539     1.817721     1.919656
O    -1.465642     1.420252     2.795927
H    -1.451622     2.131590     3.461532
H     0.217737    -2.709195    -1.566646
O    -0.536615    -2.095751    -1.621204
H    -0.356362    -1.371430    -0.985372
H    -3.426560    -2.928013    -0.386211
O    -2.710677    -3.420206    -0.809007
H    -1.999176    -2.790595    -1.025873
H     2.787257     0.117503     2.939420
O     2.875062    -0.062297     3.902527
H     2.983041     0.824481     4.309086
H    -3.509564     6.377810    -0.529664
O    -3.270338     7.041069    -1.228946
H    -3.127981     7.885476    -0.757717
H     3.917495     0.568902     1.190384
O     2.965706     0.393145     1.305374
H     2.726604    -0.361328     0.728761
H    -5.768150     0.843767    -1.595476
O    -4.857375     1.170348    -1.469657
H    -4.967274     1.998122    -0.956971
H    -1.192460     5.389538     2.222278
O    -1.817575     4.642870     2.105216
H    -1.896592     4.223262     2.967113
H     3.507745     2.747927     0.433006
O     3.262850     2.710465    -0.506241
H     3.592191     1.867162    -0.859226
H     1.498807    -4.703651    -2.249876
O     1.563065    -3.925747    -1.677592
H     2.359125    -3.466146    -2.027162
H    -0.909752    -0.089289    -2.542109
O    -0.276256     0.564005    -2.866021
H    -0.014413     1.144308    -2.128244
H     1.706550    -4.694216    -0.179273
O     1.813158    -5.331751     0.562512
H     1.349708    -6.142679     0.266569
H    -1.218048    -3.268810    -2.876564
O    -1.046099    -3.951430    -3.538479
H    -0.919784    -4.799109    -3.070527
H    -2.761305     3.300444     4.714525
O    -1.779744     3.298260     4.681001
H    -1.488221     2.893012     5.516191
H     0.982159     5.020270     4.088651
O     0.037660     5.254742     4.140972
H    -0.437937     4.452578     4.396418
H    -1.723226    -4.655768    -0.369577
O    -0.958398    -5.197763    -0.086721
H    -1.305134    -5.883962     0.492856
H    -3.899575     5.832430    -2.585235
O    -4.251517     4.999009    -2.915305
H    -4.097362     4.964670    -3.883676
H    -2.420877    -3.695999     1.939553
O    -2.440822    -4.600558     2.313912
H    -1.500931    -4.840040     2.454271
H    -4.687000    -2.978906    -2.893631
O    -3.835326    -3.212019    -3.301083
H    -3.504438    -4.006269    -2.836620
H     0.361235     1.365474     4.620324
O     0.874850     2.123723     4.291207
H     0.918529     2.780260     5.000253
H    -4.648543    -5.170210    -1.568141
O    -5.349964    -4.816655    -0.993875
H    -5.136516    -5.172079    -0.110095
H     2.330849    -6.488061    -4.040518
O     1.993885    -6.159522    -3.186938
H     2.428212    -6.733967    -2.523862
H     0.474434    -3.382864    -4.003029
O     1.276904    -3.015871    -4.426651
H     0.957094    -2.643679    -5.274631
H     1.976229    -1.765566     2.985401
O     2.131132    -2.694884     2.763395
H     1.443585    -2.907774     2.098706
H    -3.005526    -1.809809    -3.204299
O    -2.582705    -0.923568    -3.138919
H    -3.237884    -0.277279    -3.457531
H    -3.172083     4.970982     1.091856
O    -3.953087     5.346557     0.638210
H    -4.367657     5.903667     1.345167
H     0.891764     2.241041     2.599025
O     0.994248     2.240871     1.628098
H     1.717699     1.613795     1.461576
H     0.207841     5.650410    -0.747540
O     0.730947     6.312265    -1.255021
H     0.873163     7.111536    -0.698804
H     0.365049     7.026536     2.603331
O     0.002380     6.646534     1.786118
H     0.665489     5.975604     1.523508
H    -2.465653     0.207863     3.348314
O    -2.688217    -0.605590     3.853261
H    -1.926444    -0.647291     4.473562
H    -0.877675     0.541671     6.032451
O    -0.604053     0.028015     5.254589
H     0.107216    -0.580595     5.539238
H     0.718721    -5.004320     1.981110
O     0.172160    -5.114680     2.782417
H     0.320536    -6.033654     3.058023
H    -2.114822    -8.093119     0.446555
O    -1.791546    -7.606440     1.231988
H    -2.576823    -7.294801     1.689431
H    -0.360759     6.859700    -2.312946
O    -1.106904     7.281567    -2.810667
H    -1.896821     7.154872    -2.246972
H    -1.096665     4.303139     0.584314
O    -0.723456     4.365745    -0.311456
H    -1.430157     4.124306    -0.944284
H    -4.391804     2.742014     3.518056
O    -4.388633     2.911724     4.482838
H    -4.473418     2.028204     4.891010
H     2.030396    -3.603406     4.243814
O     1.949013    -4.076513     5.093537
H     2.485226    -3.558596     5.723897
H     4.697981    -3.207967     0.841792
O     4.537712    -3.130433    -0.125292
H     3.679011    -2.653337    -0.207793
H    -2.711452    -0.750910    -1.345313
O    -3.037965    -0.480321    -0.470722
H    -3.838480     0.045559    -0.676872
H    -1.607506    -0.761548    -4.625658
O    -1.101088    -0.544685    -5.429692
H    -0.390063     0.050070    -5.143951
H     1.804134    -1.720749    -3.373756
O     1.897604    -0.973562    -2.751211
H     1.120046    -0.396702    -2.880863
H     3.675502    -3.135693     2.551468
O     4.634438    -3.363108     2.480075
H     4.690833    -4.322973     2.607315
H     3.434873    -6.134669     3.122908
O     3.788664    -5.936788     2.220407
H     3.051793    -5.586296     1.680812
H    -3.331722     1.612223    -4.168737
O    -4.177483     1.142994    -3.978351
H    -4.394042     1.287197    -3.021262
H    -5.065816     4.146681     0.078653
O    -5.505199     3.281190    -0.024638
H    -6.435654     3.401255    -0.306095
H     6.744690    -1.196582    -1.359601
O     5.970772    -1.044645    -0.810803
H     5.552470    -1.912433    -0.610081
H     4.600997    -3.179096    -2.469991
O     3.733639    -3.005576    -2.886371
H     3.735929    -3.624718    -3.642205
H     4.309965    -2.402201     5.696339
O     3.978475    -2.958524     6.433583
H     4.388991    -3.825954     6.255571
H    -0.731975     6.327075     5.087761
O    -1.326621     6.903263     5.626994
H    -1.340601     7.780577     5.185733
H     4.709588    -0.147649    -1.463902
O     3.942806     0.396809    -1.725398
H     3.249522    -0.203069    -2.055264
H    -0.727657     4.521166    -4.026827
O    -1.509683     5.065633    -4.233806
H    -1.356875     5.931668    -3.810796
H     0.673694     3.198506    -2.650078
O     0.681101     3.576430    -3.558037
H     0.727103     2.813414    -4.144306
H    -5.376036    -5.196135     1.797813
O    -4.680506    -5.790941     1.440836
H    -3.839007    -5.376809     1.711898
H     7.889299    -1.703246    -4.034746
O     7.632790    -1.390040    -3.134881
H     7.146218    -0.546122    -3.290070
H     3.704775    -5.079511    -5.291047
O     4.468054    -4.706852    -4.810895
H     4.852197    -5.418427    -4.265258
H    -3.768831     0.011253     4.942949
O    -4.368988     0.475766     5.576178
H    -5.029608    -0.182216     5.867608
H     3.471015    -5.953269    -0.518845
O     4.341029    -5.705450    -0.843529
H     4.420364    -4.744302    -0.694378
H     5.009661    -0.345843    -4.158267
O     4.472776    -1.055563    -4.548756
H     4.147225    -1.640127    -3.831301
H    -1.161406     1.569857    -3.928664
O    -1.810854     2.192455    -4.313074
H    -1.453551     2.523628    -5.159675
H     4.888015    -6.332880    -2.319318
O     5.220465    -6.657299    -3.185486
H     6.037714    -7.139566    -2.998872
H     8.744678    -5.107977    -2.923576
O     8.052482    -5.524692    -2.365982
H     8.086128    -6.482201    -2.467097
H     2.355230     4.710161     0.461661
O     1.780968     4.690488     1.236820
H     1.419194     3.771132     1.310046
H    -4.403787    -2.640570     4.237166
O    -5.297639    -2.299411     4.035964
H    -5.160083    -1.518202     3.460902
H    -5.837015    -3.196988     1.323517
O    -6.300737    -3.753563     1.991541
H    -6.110486    -3.319629     2.842459
H     1.709201     3.437064     6.869902
O     1.093862     3.966873     6.344083
H     0.307384     4.119046     6.912302
H     4.901396    -2.194944     3.608195
O     4.928328    -1.480641     4.278418
H     4.103135    -0.937835     4.115176
H     2.397578    -5.587823     4.838138
O     2.776967    -6.473486     4.574201
H     2.030897    -7.054398     4.403739
H     2.259565    -4.519784    -6.790318
O     2.090129    -5.008712    -5.975132
H     1.827194    -4.317987    -5.318573
H     6.445782    -4.118452    -0.504061
O     7.200300    -4.521395    -0.043253
H     7.705779    -4.945009    -0.764457
H    -1.702454     4.477258     7.711887
O    -0.802141     4.575812     8.094564
H    -0.622687     5.535046     8.121083
H    -5.103727     5.697982    -5.582470
O    -4.496803     4.934007    -5.603471
H    -3.739854     5.147847    -6.170066
H     3.285232    -2.530870    -8.435821
O     3.197095    -3.063993    -7.634929
H     4.073959    -3.041600    -7.206333
H    -0.640047     8.822891    -2.264362
O    -0.515544     9.650908    -1.744950
H     0.247033     9.475257    -1.169132
H     2.075819    -0.932407     5.216244
O     1.496465    -1.451234     5.802244
H     1.590157    -1.106672     6.700199
H     5.211271    -2.033058    -5.692674
O     5.556033    -2.799084    -6.215959
H     5.282064    -3.589258    -5.698521
H     5.712987    -5.211111     4.702916
O     5.177133    -5.145715     5.520367
H     4.463709    -5.783626     5.415153
H    -3.956850     1.138077     7.016044
O    -3.763708     1.613859     7.859848
H    -4.639424     1.999385     8.121784
H    -1.829207     9.610888    -0.730396
O    -2.689109     9.485259    -0.254741
H    -3.300233     10.114112    -0.642159
H    -5.933279     4.692279    -2.925114
O    -6.842222     4.574766    -3.269015
H    -6.752963     3.872577    -3.946551
H     0.096913    -7.070589    -1.143524
O     0.561394    -7.508633    -0.397572
H    -0.116553    -7.702263     0.252900
H    -7.622779     3.795053    -1.960031
O    -7.884142     3.208020    -1.220039
H    -7.742531     2.299285    -1.560280
H     3.570430    -1.202609     7.513753
O     3.775046    -0.259603     7.457447
H     4.741732    -0.251112     7.352971
H     2.275545     5.787683    -1.170584
O     3.210710     5.493656    -1.056459
H     3.386456     4.954426    -1.850740
H     6.555136    -5.945901     0.669605
O     6.184611    -6.684832     1.197632
H     5.283225    -6.404031     1.432616
H    -3.846118     4.720290     7.793290
O    -3.279396     4.257805     7.134120
H    -3.474344     3.314378     7.243200
H     5.765455    -7.959590     0.132925
O     5.477348    -8.645830    -0.506374
H     4.647717    -8.319137    -0.898427
H    -0.538325     2.026238     7.701241
O    -1.172889     1.969488     6.966868
H    -2.040762     1.824425     7.363489
H    -6.370504    -0.121838     1.071957
O    -6.692032    -0.202908     0.159268
H    -7.610684    -0.473938     0.177931
H    -5.364076    -3.064111    -0.581511
O    -5.111183    -2.362163     0.044361
H    -5.680460    -1.588783    -0.142764
H     4.335792     5.565178     0.327017
O     4.669405     5.663718     1.232653
H     3.976422     6.176262     1.684672
H    -9.036099    -1.739091    -2.243025
O    -8.487638    -1.538617    -1.457170
H    -8.614926    -2.275899    -0.820116
H    -5.512842     3.475389    -5.515413
O    -6.030791     2.765317    -5.100523
H    -5.364592     2.178499    -4.687889
H     3.186785    -0.894858    -5.652129
O     2.330647    -1.012664    -6.118289
H     2.414554    -1.861849    -6.591749
H     8.119628    -1.361644    -6.030895
O     8.127539    -2.225942    -5.575207
H     7.270660    -2.625056    -5.824722
H     7.628575     0.979863    -6.309034
O     7.438485     0.132402    -6.723403
H     6.457072     0.083050    -6.758397
H    -7.852973    -3.690500     0.937663
O    -8.531830    -3.582409     0.253854
H    -8.434645    -4.341529    -0.348435
H    -2.385558     8.732038     1.307744
O    -2.233853     8.143177     2.060444
H    -1.465190     7.589013     1.835661
H    -4.422898     6.431374     3.511185
O    -4.593025     6.858488     2.655266
H    -3.829118     7.443662     2.515556
H     3.413585     3.438598    -3.571074
O     3.261263     4.408054    -3.475940
H     2.296455     4.473505    -3.583942
H    -6.108687    -1.602171    -3.433643
O    -6.191750    -2.181734    -2.649964
H    -6.975040    -1.874129    -2.140599
H     6.716224     1.129991     4.478716
O     6.380494     1.643843     5.246381
H     6.470216     2.584963     4.960651
H     1.370795     1.718263    -5.816659
O     1.176251     1.122431    -5.062477
H     1.538413     0.258924    -5.333015
H    -2.467679     2.951221     10.493872
O    -2.255358     2.044138     10.219308
H    -2.854240     1.844752     9.487792
H     7.462581    -0.716632     2.949038
O     6.828844    -0.031947     3.204537
H     6.085848    -0.575958     3.588802
H    -5.657673    -8.053517    -0.697773
O    -4.922724    -8.123844    -0.051778
H    -4.924716    -7.306862     0.470706
H    -5.169683    -0.115251    -4.706075
O    -5.787739    -0.826089    -4.946038
H    -6.625584    -0.383441    -5.143090
H     1.895544    -0.201484    -7.510807
O     1.693901     0.271502    -8.354192
H     2.269440    -0.134204    -9.008017
H     4.875135    -1.398509    -9.302802
O     3.950203    -1.167771    -9.584444
H     3.929084    -1.285962    -10.533415
H     7.638984    -2.672817     4.164961
O     7.809717    -2.723899     3.202753
H     7.289073    -3.505101     2.944403
H     6.730750    -5.910845     2.686443
O     6.792755    -5.229683     3.380286
H     7.663628    -5.318890     3.806952
H    -1.796810     8.940730     3.511309
O    -1.547635     9.243860     4.409871
H    -2.395896     9.377476     4.866119
H    -7.380945     1.574258    -5.238402
O    -7.956403     0.830560    -4.993558
H    -8.857640     1.230965    -4.916663
H     6.929865    -1.092004    -8.404295
O     6.346777    -1.812036    -8.668221
H     6.119003    -2.262424    -7.836444
H    -1.663197     6.242476    -7.010595
O    -2.062135     5.417611    -6.737378
H    -1.813038     5.285389    -5.774178
H     0.017751     3.300892     9.030976
O     0.219481     2.382392     9.286473
H    -0.577622     2.114171     9.792688
H     6.762369    -2.793029    -2.706052
O     6.230392    -3.536641    -2.366618
H     6.698728    -4.348095    -2.611456
H    -4.073468    -3.070890    -4.937228
O    -4.228372    -2.957146    -5.901846
H    -4.774985    -2.163596    -5.956794
H     1.851684     2.223423     8.532896
O     2.603506     2.216352     7.920049
H     2.869901     1.277520     7.863721
H    -6.903708    -5.198725    -1.388668
O    -7.819942    -5.466724    -1.633759
H    -7.953558    -5.063564    -2.516393
H    -3.806267     5.249912     5.710141
O    -3.772812     6.018933     5.120071
H    -2.838666     6.312033     5.213761
H    -7.875176     0.092632    -1.954482
O    -7.385266     0.816279    -2.367857
H    -7.613987     0.805805    -3.320984
H     5.846649     0.120038     0.409905
O     5.631479     0.841768     1.033686
H     6.129665     0.620823     1.848615
H    -6.195470     3.307139     7.409115
O    -6.067717     2.788565     8.237492
H    -6.668546     2.027633     8.148941
H     2.281564    -8.082115    -0.842389
O     2.955639    -8.069272    -1.541484
H     2.729192    -8.783690    -2.153457
H    -2.742650    -3.960049    -6.191966
O    -1.989262    -4.527062    -5.961443
H    -1.712075    -4.236924    -5.064009
H    -5.624467     3.758344     5.322177
O    -6.272407     4.155530     5.940181
H    -6.108164     5.099434     5.926819
H    -1.017772    -7.117002    -3.162353
O    -0.544953    -6.447563    -2.634277
H     0.363234    -6.379881    -3.014072
H     4.514714     1.953563     5.147943
O     3.579030     2.204919     5.063255
H     3.187473     2.121705     5.943195
H     4.125241     4.638044     6.309250
O     4.217736     5.365765     5.690049
H     3.645597     5.131007     4.920605
H     2.782451     3.596612     3.929319
O     2.611971     4.536350     3.769347
H     2.486941     4.641662     2.802822
H     9.403422     0.192629    -1.071903
O     8.598739     0.358288    -0.577069
H     8.421835    -0.460740    -0.083914
H    -2.076624     5.310219     10.662714
O    -2.798882     4.682260     10.894090
H    -3.016782     4.859027     11.809462
H     7.981174    -3.024947     0.322812
O     8.402459    -2.177629     0.575085
H     8.343841    -2.176185     1.538482
H     5.385455     3.659003     3.521468
O     6.051938     3.944385     4.170618
H     5.625908     4.633870     4.701459
H    -4.185802     5.014751     9.798041
O    -4.818841     5.167376     9.076388
H    -5.431821     4.419615     9.073499
H    -7.006413    -3.473335    -3.476700
O    -7.628108    -4.083776    -3.925353
H    -7.107917    -4.526255    -4.627979
H     0.053438     6.115569     10.781752
O    -0.810659     6.448798     10.535381
H    -0.695334     6.879667     9.669240
H     2.599100     1.489223    -4.100145
O     3.477703     1.841523    -3.861416
H     3.798352     1.324509    -3.092193
H    -6.956699    -0.220466     7.231043
O    -7.464130     0.558616     7.512134
H    -8.087784     0.742727     6.808633
H    -2.743672    -9.875706    -0.828343
O    -2.680289    -8.934183    -0.988783
H    -3.585244    -8.566812    -0.746559
H    -10.057630     3.086106    -4.882043
O    -10.175744     2.168584    -4.601995
H    -10.390543     2.252013    -3.652012
H    -2.055678    -3.031919     4.619901
O    -2.932762    -3.468700     4.689393
H    -2.927481    -4.087371     3.933782
H    -0.174848    -7.990647     2.484724
O     0.651373    -7.781891     2.933438
H     1.370254    -8.076900     2.346931
H     7.026058    -2.118598     6.317546
O     7.326691    -2.966642     5.944716
H     6.571479    -3.563042     6.010314
H    -5.258884    -2.007149     6.952400
O    -5.934813    -1.507385     6.469550
H    -5.919717    -1.883979     5.560076
H     0.845311     3.030331    -7.106964
O     1.762643     2.698969    -7.164335
H     1.747479     1.951372    -7.790133
H    -3.929266     8.751461     6.688337
O    -3.925905     8.750063     5.730988
H    -4.053909     7.823141     5.462407
H    -2.038349     10.312792    -2.722469
O    -2.940222     10.495855    -3.022664
H    -2.868807     11.129594    -3.735803
H     9.414295    -4.083909     4.046371
O     9.137984    -4.758026     4.675304
H     8.701347    -4.279161     5.391381
H    -0.735257    -5.998182    -5.837810
O    -0.032456    -6.566264    -5.505669
H     0.803668    -6.105671    -5.722869
H     1.846982     8.266763     0.674983
O     1.543510     8.589916    -0.201728
H     2.357495     8.626868    -0.733414
H     3.507405     2.923762    -6.656920
O     4.335191     2.633189    -6.248265
H     4.090361     2.358350    -5.339582
H     3.751527     7.115173    -1.222044
O     3.958613     8.050887    -1.434403
H     4.326719     7.995047    -2.328272
H     4.399598    -0.013786    -7.909028
O     4.777925     0.132017    -7.040074
H     4.597278     1.063860    -6.795844
H     6.044168     1.918690    -0.473776
O     6.609584     2.113860    -1.234886
H     7.432732     1.630492    -1.042796
H     6.683730    -8.443701    -1.610803
O     7.319403    -8.234335    -2.348556
H     7.685211    -9.069320    -2.635320
H    -5.301538    -5.783968    -5.400907
O    -5.918213    -5.111062    -5.714819
H    -5.366225    -4.343414    -5.951465
H     0.707878     7.163366     7.611457
O    -0.193041     7.191612     7.971806
H    -0.749653     7.206983     7.154947
H    -8.893116    -2.825594    -4.090734
O    -9.412564    -2.016513    -3.922604
H    -9.125990    -1.351732    -4.552598
H    -2.408051    -5.989303    -2.139146
O    -3.286064    -5.701800    -2.407173
H    -3.474210    -6.076105    -3.292801
H    -2.986650    -5.898558    -5.404672
O    -3.587276    -6.507795    -4.932760
H    -3.106148    -7.328630    -4.766243
H    -1.380933     3.727191    -6.973221
O    -0.841102     2.970938    -6.703055
H    -1.079181     2.186118    -7.253101
H    -0.199183     0.417481    -8.209220
O    -1.094574     0.654055    -7.924796
H    -1.269888     0.129859    -7.127245
H    -10.409119     4.062657    -2.716971
O    -10.477258     3.283919    -2.149035
H    -9.647329     3.255800    -1.641174
H     4.597744     4.067097     1.725358
O     4.395250     3.148038     2.015543
H     5.101292     2.568277     1.716528
H     6.494867     1.387314    -4.217936
O     6.191019     0.763574    -3.524196
H     6.223938     1.257885    -2.679917
H     9.640222    -2.243610    -0.931923
O     9.916943    -2.028404    -1.831791
H     9.116302    -1.689392    -2.274247
H     9.973690    -3.337205    -3.101802
O     9.706362    -3.988076    -3.777817
H     9.311854    -3.479466    -4.496863
H    -7.699408    -8.569512    -1.659400
O    -6.961087    -7.975952    -1.788555
H    -7.337506    -7.062489    -1.777437
H     4.175439     6.073032    -3.814193
O     4.837289     6.773515    -3.728382
H     5.673181     6.318219    -3.593366
H     0.094831    -8.173040    -5.214324
O     0.117157    -9.156068    -5.083399
H     0.267504    -9.519245    -5.956220
H    -2.334232    -8.674365    -2.713590
O    -2.101658    -8.410694    -3.623541
H    -1.455344    -9.029204    -3.982795
H     2.178410    -10.822958    -3.497176
O     2.134028    -9.868340    -3.473354
H     1.348265    -9.596196    -3.998147
H     6.846546     3.320109    -4.572208
O     6.903657     2.642533    -5.273611
H     6.109581     2.776046    -5.813337
H    -3.551079    -3.728459     7.727565
O    -3.666567    -2.940508     7.197938
H    -3.415118    -3.179088     6.279368
H    -0.636267    -3.362787    -6.719600
O    -0.005597    -2.631684    -6.727949
H    -0.486151    -1.856172    -6.384873
H     0.659100     0.442413     8.761531
O     0.658888    -0.268200     8.116879
H    -0.263655    -0.554991     8.031410
H    -5.818172     7.372989    -4.235335
O    -6.322216     6.755212    -4.796463
H    -6.609427     6.023966    -4.205695
H    -4.259731     9.105830    -3.247269
O    -4.796312     8.310310    -3.140937
H    -4.387765     7.829602    -2.402928
H    -9.697553     5.807236    -4.627953
O    -10.231718     5.003143    -4.464307
H    -11.112308     5.205046    -4.782504
H     2.793514     6.504345     6.147516
O     1.833992     6.599454     6.247654
H     1.489671     5.686489     6.145963
H     4.823924     8.536787     0.091694
O     5.142181     8.536239     1.012441
H     5.548846     7.671551     1.141445
H     4.141669    -7.433699    -4.343869
O     3.383137    -7.717619    -4.886238
H     3.102124    -8.558199    -4.509791
H     0.400709     8.651515     4.245196
O     1.078364     8.006646     4.017227
H     1.303450     7.513024     4.831415
H     5.248341     4.181141    -3.153630
O     6.209782     4.151560    -3.100645
H     6.418800     3.567776    -2.354603
H    -2.563740    -1.552357     7.580154
O    -2.054458    -0.758317     7.799848
H    -2.680051    -0.133032     8.175664
H    -9.010954     7.945970    -4.127324
O    -8.949056     7.361945    -4.884640
H    -7.992282     7.196690    -5.020609
H     3.533302    -8.989616     1.090489
O     2.855862    -8.357512     1.336170
H     3.330358    -7.552891     1.620032
H     3.606127     8.161526     1.837797
O     2.816243     7.597385     1.952061
H     2.369655     7.835117     2.777321
N     6.622690    -0.343815     7.052886
H     7.157636    -0.146776     7.826925
H     6.677015     0.461676     6.484052
