39

H     6.607161    -1.226490    -1.411515
O     5.892974    -1.059299    -0.795575
H     5.439387    -1.917983    -0.597586
H     7.934315    -1.672522    -4.019528
O     7.650773    -1.369105    -3.128898
H     7.150879    -0.531734    -3.321099
H     4.828992    -6.322650    -2.241526
O     5.167374    -6.628827    -3.114023
H     5.920126    -7.217832    -2.956013
H     8.780546    -5.336764    -3.795590
O     8.225948    -5.670264    -3.059702
H     8.171789    -6.633558    -3.121085
H     6.747307    -4.081493    -0.681771
O     7.140632    -4.258670     0.198175
H     8.063616    -4.545185    -0.034545
H     6.425488    -5.842375     0.726956
O     6.157927    -6.622798     1.260785
H     5.253172    -6.391513     1.552598
H     6.774629    -2.928301    -2.744979
O     6.313028    -3.696440    -2.357287
H     6.666154    -4.481940    -2.807426
H     9.347077     0.407183    -0.876003
O     8.642636     0.710609    -0.299069
H     8.352936    -0.090538     0.175102
H     7.693151    -2.588250     0.586389
O     8.248861    -1.828707     0.877442
H     8.308576    -2.001829     1.832775
H     6.659602    -8.562967    -1.600658
O     7.215558    -8.396253    -2.414207
H     7.271501    -9.254912    -2.842684
H     9.506386    -1.985604    -0.443561
O     9.910263    -2.074016    -1.332072
H     9.197154    -1.799696    -1.931379
H     10.450063    -3.847891    -4.355077
O     9.743596    -4.249385    -4.871973
H     9.235613    -3.488551    -5.213153
N     9.578943    -4.883382    -0.734606
H     9.189583    -5.269974    -1.543979
H     9.853029    -3.990971    -1.019819
