24
Coordinates from ORCA-job grain_mol_opt.QMRegion
  H   4.92300686247382     -6.23143979111901     -2.27938239042417
  O   5.25163451638098     -6.55289501174439     -3.15003848459673
  H   6.13481948907073     -6.92488449086139     -3.00024043565860
  H   5.85535960773684     -7.91585090716041      0.20989409629815
  O   5.53895453543770     -8.56906337799577     -0.45257000200701
  H   4.67768959641056     -8.22047275987431     -0.76613891988321
  H   2.22570059047415     -8.03968841965171     -0.91015157249764
  O   2.96629059385105     -8.02461427392493     -1.54223741128150
  H   2.75299281554867     -8.70051119069441     -2.21269046474558
  H   6.86562988342901     -8.31962384745083     -1.67626878039370
  O   7.43667842044692     -8.18671242833276     -2.46270297187299
  H   7.22982680390711     -8.95263227880094     -3.00993647068602
  H   2.48235956845565    -10.70224827744124     -3.61793708104423
  O   2.27187001335855     -9.76659914346103     -3.58860094848659
  H   1.42249964137780     -9.64030099270891     -4.06955711123166
  H   4.17115605435682     -7.35224517873170     -4.33949780291334
  O   3.45891673253645     -7.53509173338052     -4.98755985472320
  H   3.14639990357163     -8.40975101429238     -4.72851854884373
  H   3.44935605859349     -8.98012332352631      1.56431977284984
  O   2.86513113363068     -8.23567299650458      1.40991456702221
  H   3.37883919817302     -7.45378703375100      1.70561393054268
  O   5.52734018110677    -10.69319911947614     -2.37642286568205
  H   5.93863572339264    -11.52592555234398     -2.12821229167390
  H   5.53654431961859    -10.16971543816818     -1.55719358822148
