603

H     0.200599     3.029253    -0.667369
O     0.724067     2.357509    -1.155321
H     1.661874     2.484991    -0.877894
H    -0.106657    -1.294132     3.176328
O     0.291915    -0.597200     2.632655
H    -0.184975     0.218749     2.859238
H    -2.400633     2.416359    -0.534279
O    -2.194699     1.947802     0.292060
H    -2.213823     0.999243     0.070057
H    -4.682655     0.568908     2.179234
O    -5.001867    -0.363676     2.194718
H    -4.496399    -0.844932     1.531413
H     0.048016    -0.303804     0.974732
O    -0.143580    -0.070670     0.045848
H     0.196835     0.825355    -0.076323
H    -0.189153    -3.564697     3.813042
O    -0.467159    -2.731863     4.229325
H     0.176151    -2.555628     4.931860
H    -4.896992     2.549905     1.319406
O    -4.261262     2.140922     1.938473
H    -3.416429     2.119177     1.429366
H    -3.239145     3.900058    -2.219590
O    -2.504226     3.301915    -1.983043
H    -2.142643     3.010063    -2.840056
H    -0.150030    -3.801677     0.538964
O     0.191917    -2.983457     0.954539
H    -0.595446    -2.493309     1.260720
H    -2.405189    -1.521939     2.484910
O    -2.211718    -1.991007     1.646812
H    -2.466637    -1.406815     0.913739
H     2.062602    -1.452034    -1.084845
O     2.289509    -1.703589    -0.165727
H     1.496435    -2.126235     0.215909
H    -1.406809     1.835973     1.920024
O    -1.502004     1.441606     2.797222
H    -1.489898     2.156523     3.459538
H     0.196669    -2.708495    -1.537847
O    -0.556572    -2.094873    -1.598194
H    -0.378261    -1.366575    -0.966278
H    -3.455314    -2.916457    -0.375969
O    -2.736770    -3.411771    -0.790686
H    -2.024316    -2.783678    -1.008215
H     2.747331     0.131722     2.968194
O     2.840606    -0.047952     3.931044
H     2.932581     0.846158     4.332983
H    -3.520880     6.389041    -0.561267
O    -3.277244     7.048444    -1.262646
H    -3.135513     7.894873    -0.794725
H     3.885996     0.578287     1.223014
O     2.934794     0.398287     1.336271
H     2.697946    -0.354275     0.757095
H    -5.783196     0.853863    -1.613588
O    -4.872447     1.179077    -1.483972
H    -4.983687     2.009718    -0.976064
H    -1.219066     5.409465     2.206241
O    -1.845179     4.663303     2.089354
H    -1.928535     4.248336     2.953115
H     3.487317     2.755831     0.452819
O     3.243594     2.710160    -0.487296
H     3.575472     1.865509    -0.833314
H     1.475353    -4.707197    -2.208994
O     1.542910    -3.930286    -1.635461
H     2.338987    -3.470802    -1.986112
H    -0.922285    -0.090485    -2.531582
O    -0.283956     0.558485    -2.854578
H    -0.026027     1.143142    -2.118630
H     1.668780    -4.689057    -0.140642
O     1.768792    -5.325701     0.602879
H     1.301724    -6.137852     0.309658
H    -1.235106    -3.272140    -2.852867
O    -1.058557    -3.957683    -3.510476
H    -0.938252    -4.804047    -3.038590
H    -2.805047     3.334160     4.700763
O    -1.823601     3.328329     4.671375
H    -1.535999     2.929116     5.510637
H     0.944921     5.047482     4.083414
O    -0.000743     5.282346     4.130351
H    -0.476128     4.481428     4.388960
H    -1.753635    -4.646703    -0.340859
O    -0.990484    -5.186517    -0.049408
H    -1.341872    -5.873615     0.526879
H    -3.901555     5.834819    -2.616179
O    -4.252885     5.000390    -2.944493
H    -4.093872     4.961746    -3.911890
H    -2.460891    -3.674977     1.958867
O    -2.483517    -4.576984     2.339257
H    -1.544835    -4.817653     2.484390
H    -4.702204    -2.976073    -2.888902
O    -3.848461    -3.212408    -3.290268
H    -3.522217    -4.005799    -2.821127
H     0.310209     1.393733     4.632468
O     0.820423     2.150802     4.298576
H     0.866827     2.812699     5.002910
H    -4.674214    -5.161940    -1.553033
O    -5.377490    -4.804114    -0.983755
H    -5.169531    -5.156351    -0.097448
H     2.315344    -6.501777    -3.983593
O     1.977116    -6.168119    -3.132048
H     2.398350    -6.750518    -2.467251
H     0.463470    -3.393789    -3.970601
O     1.269611    -3.030330    -4.390483
H     0.955306    -2.661373    -5.242130
H     1.930225    -1.747437     3.020641
O     2.087454    -2.678077     2.803707
H     1.403180    -2.892871     2.134930
H    -3.017253    -1.811160    -3.196138
O    -2.592848    -0.925558    -3.132255
H    -3.245142    -0.279368    -3.457341
H    -3.193717     4.989330     1.068346
O    -3.972261     5.363306     0.608951
H    -4.389195     5.924780     1.311200
H     0.858345     2.261461     2.608019
O     0.963717     2.252706     1.637316
H     1.689823     1.627116     1.478824
H     0.197257     5.654695    -0.756620
O     0.723159     6.313209    -1.265413
H     0.864734     7.114749    -0.712014
H     0.338470     7.045464     2.588203
O    -0.020964     6.662858     1.770624
H     0.642490     5.989665     1.514592
H    -2.506514     0.235201     3.349770
O    -2.732617    -0.576554     3.856527
H    -1.975509    -0.615977     4.482052
H    -0.931086     0.578922     6.040130
O    -0.654175     0.054798     5.269612
H     0.054241    -0.550280     5.562901
H     0.670485    -4.987771     2.021059
O     0.130549    -5.089145     2.827056
H     0.265680    -6.013725     3.100472
H    -2.153691    -8.079486     0.489668
O    -1.836810    -7.586901     1.273622
H    -2.625974    -7.274743     1.723680
H    -0.362143     6.857551    -2.330707
O    -1.105187     7.277764    -2.834691
H    -1.898021     7.155596    -2.274140
H    -1.116359     4.315831     0.574291
O    -0.739196     4.372544    -0.320307
H    -1.443687     4.130422    -0.955040
H    -4.429999     2.773143     3.498029
O    -4.432042     2.946885     4.462014
H    -4.520072     2.065567     4.873859
H     1.993583    -3.599986     4.269092
O     1.958823    -4.086339     5.116174
H     2.432993    -3.527652     5.753245
H     4.666841    -3.192520     0.888290
O     4.505300    -3.132974    -0.079710
H     3.648879    -2.651815    -0.168037
H    -2.731001    -0.744484    -1.340822
O    -3.061114    -0.470275    -0.468680
H    -3.859597     0.056529    -0.680899
H    -1.610178    -0.771902    -4.615227
O    -1.098756    -0.560200    -5.417429
H    -0.388740     0.035420    -5.130987
H     1.792796    -1.731027    -3.342193
O     1.884877    -0.982879    -2.720492
H     1.109859    -0.403670    -2.856961
H     3.581537    -2.980530     2.534394
O     4.546536    -3.213317     2.482445
H     4.549578    -4.171077     2.630860
H     3.291512    -6.069614     3.088116
O     3.722790    -5.820516     2.229182
H     3.002329    -5.497139     1.646766
H    -3.332626     1.606673    -4.177632
O    -4.179625     1.138988    -3.989138
H    -4.401172     1.288559    -3.034011
H    -5.083718     4.163033     0.049522
O    -5.524065     3.297729    -0.052393
H    -6.452880     3.418284    -0.338994
H     6.724102    -1.204748    -1.309251
O     5.951259    -1.052118    -0.759017
H     5.527983    -1.918060    -0.563742
H     4.584956    -3.190782    -2.417506
O     3.718684    -3.019311    -2.837047
H     3.723857    -3.639459    -3.592323
H     4.389665    -2.283849     5.673010
O     4.040451    -2.740683     6.468973
H     4.387573    -3.642486     6.412780
H    -0.771700     6.359192     5.069913
O    -1.369157     6.938491     5.603349
H    -1.378363     7.814019     5.158664
H     4.692390    -0.154672    -1.423865
O     3.927520     0.388756    -1.691526
H     3.234941    -0.210704    -2.023478
H    -0.724091     4.512162    -4.035853
O    -1.504369     5.056507    -4.249379
H    -1.352552     5.924318    -3.829339
H     0.668009     3.193256    -2.645720
O     0.680702     3.566686    -3.555494
H     0.728199     2.801032    -4.138099
H    -5.418760    -5.170805     1.809535
O    -4.722216    -5.768389     1.459165
H    -3.881473    -5.354690     1.732410
H     7.881777    -1.727418    -3.971287
O     7.620545    -1.409995    -3.073921
H     7.137409    -0.565051    -3.236208
H     3.698072    -5.101026    -5.234468
O     4.458904    -4.727804    -4.750593
H     4.839234    -5.438765    -4.201378
H    -3.819383     0.047405     4.938263
O    -4.421003     0.515564     5.566833
H    -5.084586    -0.139425     5.858167
H     3.405186    -5.883135    -0.699914
O     4.328331    -5.643218    -0.816090
H     4.356400    -4.668240    -0.696539
H     5.005629    -0.364361    -4.116017
O     4.470116    -1.075867    -4.505385
H     4.138960    -1.655283    -3.786957
H    -1.162752     1.561917    -3.926974
O    -1.809681     2.183176    -4.317345
H    -1.447767     2.510639    -5.163459
H     4.870320    -6.346102    -2.244018
O     5.201963    -6.668586    -3.111043
H     6.015627    -7.157133    -2.923782
H     8.726442    -5.127156    -2.837303
O     8.034170    -5.540241    -2.277139
H     8.061236    -6.498177    -2.382376
H     2.336690     4.715638     0.465651
O     1.754393     4.701853     1.234622
H     1.393743     3.783017     1.313752
H    -4.454737    -2.605782     4.241769
O    -5.346729    -2.264087     4.034584
H    -5.205143    -1.485698     3.456500
H    -5.873810    -3.173195     1.323605
O    -6.341408    -3.726205     1.991878
H    -6.155548    -3.288423     2.841727
H     1.652554     3.489847     6.878271
O     1.033378     4.004803     6.339503
H     0.248442     4.162683     6.907189
H     4.969448    -2.159562     3.670113
O     4.986401    -1.443046     4.337697
H     4.176679    -0.886292     4.171927
H     2.369370    -5.536151     4.865338
O     2.713878    -6.443681     4.617286
H     1.910317    -6.964010     4.480801
H     2.261568    -4.546598    -6.743371
O     2.088063    -5.031144    -5.926407
H     1.821859    -4.336984    -5.274992
H     6.415205    -4.131893    -0.430426
O     7.161633    -4.543075     0.036933
H     7.672591    -4.959792    -0.685426
H    -1.759693     4.523720     7.697935
O    -0.862068     4.620678     8.086591
H    -0.678769     5.579475     8.108631
H    -5.090505     5.688638    -5.619004
O    -4.484756     4.923522    -5.633636
H    -3.724629     5.133671    -6.197340
H     3.298705    -2.567048    -8.392511
O     3.205920    -3.095864    -7.589232
H     4.080889    -3.073183    -7.157048
H    -0.637979     8.821446    -2.292762
O    -0.514935     9.651523    -1.776502
H     0.244290     9.477205    -1.195746
H     2.026431    -0.904765     5.244681
O     1.453759    -1.433022     5.830471
H     1.539632    -1.080767     6.726046
H     5.212330    -2.059661    -5.641907
O     5.558886    -2.828879    -6.159105
H     5.280008    -3.616211    -5.640122
H     5.639379    -5.259200     4.818727
O     5.212006    -5.141548     5.697706
H     4.480194    -5.760570     5.732047
H    -4.015084     1.183972     7.006071
O    -3.825137     1.662528     7.848813
H    -4.701338     2.051610     8.104376
H    -1.833999     9.618314    -0.768471
O    -2.696762     9.496002    -0.297189
H    -3.304620     10.124561    -0.690137
H    -5.935138     4.696601    -2.961455
O    -6.842602     4.578815    -3.309201
H    -6.751200     3.873607    -3.983223
H     0.061434    -7.068834    -1.095680
O     0.526389    -7.494892    -0.343375
H    -0.151563    -7.695534     0.305248
H    -7.631114     3.806615    -2.000615
O    -7.897066     3.223170    -1.259398
H    -7.755357     2.312792    -1.595034
H     3.926213    -0.875886     7.028408
O     3.938333     0.088293     7.016005
H     4.753111     0.373912     6.586230
H     2.266693     5.786391    -1.170100
O     3.200914     5.491402    -1.050703
H     3.379433     4.948080    -1.841293
H     6.595576    -5.906353     0.767425
O     6.212223    -6.635602     1.313424
H     5.284956    -6.345735     1.429728
H    -3.902651     4.769955     7.767041
O    -3.334298     4.303021     7.112395
H    -3.531234     3.360631     7.225413
H     5.717385    -7.962843     0.123224
O     5.468317    -8.709279    -0.454064
H     4.620544    -8.436258    -0.852424
H    -0.599241     2.072751     7.704240
O    -1.229085     2.006021     6.966378
H    -2.099949     1.869425     7.359578
H    -6.401531    -0.098193     1.055800
O    -6.717392    -0.184180     0.141681
H    -7.636931    -0.452513     0.156040
H    -5.391143    -3.050009    -0.579404
O    -5.139565    -2.345660     0.044336
H    -5.706925    -1.572223    -0.148837
H     4.318440     5.567755     0.339432
O     4.648580     5.670522     1.245795
H     3.953772     6.184850     1.693032
H    -9.052194    -1.726288    -2.265751
O    -8.507168    -1.523405    -1.478087
H    -8.639277    -2.257434    -0.838308
H    -5.503654     3.467320    -5.543960
O    -6.024753     2.759704    -5.128743
H    -5.361678     2.173861    -4.709983
H     3.189472    -0.917662    -5.617318
O     2.335118    -1.037206    -6.085957
H     2.420358    -1.888133    -6.556089
H     8.123884    -1.394584    -5.967175
O     8.127385    -2.256610    -5.506965
H     7.271480    -2.655459    -5.760388
H     7.637700     0.946297    -6.259420
O     7.448258     0.096683    -6.669700
H     6.466960     0.049345    -6.710482
H    -7.888665    -3.665597     0.929997
O    -8.563580    -3.559061     0.242128
H    -8.465061    -4.321147    -0.356204
H    -2.402051     8.749768     1.270753
O    -2.255982     8.163681     2.026649
H    -1.486446     7.607657     1.809108
H    -4.454536     6.462594     3.474318
O    -4.619824     6.885683     2.615422
H    -3.854326     7.469169     2.476945
H     3.412812     3.424368    -3.554491
O     3.261826     4.394348    -3.465193
H     2.297619     4.461330    -3.577454
H    -6.118742    -1.599750    -3.442082
O    -6.206386    -2.175572    -2.656121
H    -6.991991    -1.864622    -2.152275
H     6.436803     1.051200     4.784433
O     6.041398     1.592763     5.484322
H     6.231884     2.510233     5.190841
H     1.378462     1.697516    -5.802120
O     1.179359     1.105141    -5.046266
H     1.541089     0.239922    -5.311544
H    -2.540149     3.010927     10.482975
O    -2.329187     2.101836     10.213618
H    -2.924632     1.901230     9.479661
H     7.599305    -0.506828     3.139239
O     6.850023     0.071243     3.302402
H     6.154248    -0.524275     3.683298
H    -5.692556    -8.039502    -0.674596
O    -4.960958    -8.107664    -0.024616
H    -4.964694    -7.288550     0.494307
H    -5.170821    -0.120319    -4.716578
O    -5.788749    -0.831312    -4.956366
H    -6.624879    -0.388195    -5.159701
H     1.908428    -0.231187    -7.485082
O     1.712061     0.238203    -8.331536
H     2.290170    -0.171346    -8.980674
H     4.895131    -1.441368    -9.256593
O     3.971873    -1.210791    -9.543535
H     3.955239    -1.332551    -10.492158
H     7.526598    -2.571902     4.263019
O     7.678376    -2.617182     3.304598
H     7.175693    -3.402221     3.035441
H     6.755128    -5.801697     2.766122
O     6.783950    -5.181875     3.520990
H     7.673470    -5.254930     3.929632
H    -1.824564     8.967408     3.476417
O    -1.579829     9.274642     4.374714
H    -2.430183     9.411428     4.825990
H    -7.376438     1.570384    -5.267871
O    -7.954237     0.828754    -5.022272
H    -8.855255     1.230998    -4.951898
H     6.946163    -1.133602    -8.348910
O     6.363119    -1.853880    -8.612223
H     6.130644    -2.300178    -7.779641
H    -1.642068     6.220853    -7.032354
O    -2.043198     5.397635    -6.757362
H    -1.799475     5.269926    -5.792139
H    -0.042833     3.346296     9.031851
O     0.150426     2.426801     9.290855
H    -0.650749     2.166945     9.795089
H     6.746246    -2.809345    -2.642430
O     6.213803    -3.550353    -2.297488
H     6.679382    -4.363674    -2.541889
H    -4.078439    -3.078493    -4.928595
O    -4.227791    -2.968962    -5.894516
H    -4.773082    -2.174971    -5.956148
H     1.935079     2.212318     8.486792
O     2.602303     2.320015     7.799214
H     3.022658     1.448173     7.689153
H    -6.930292    -5.185453    -1.384863
O    -7.845723    -5.452921    -1.633155
H    -7.974310    -5.053798    -2.518366
H    -3.850995     5.290326     5.681867
O    -3.813451     6.056214     5.088075
H    -2.879176     6.348585     5.185258
H    -7.889793     0.104596    -1.979896
O    -7.396156     0.825297    -2.393943
H    -7.620337     0.811267    -3.348142
H     5.822363     0.116441     0.457884
O     5.599571     0.840964     1.074824
H     6.105687     0.647957     1.890741
H    -6.251586     3.358905     7.377935
O    -6.128572     2.843408     8.209022
H    -6.730789     2.083569     8.121121
H     2.256824    -8.094177    -0.765939
O     2.924499    -8.068239    -1.470182
H     2.706595    -8.790821    -2.076203
H    -2.742853    -3.975692    -6.172898
O    -1.991346    -4.542631    -5.936003
H    -1.718514    -4.248957    -5.038532
H    -5.669827     3.799827     5.291614
O    -6.320287     4.200418     5.904709
H    -6.154494     5.144020     5.888050
H    -1.039393    -7.122439    -3.118900
O    -0.567328    -6.450305    -2.592978
H     0.341918    -6.386622    -2.969845
H     4.413769     2.024968     5.162362
O     3.473279     2.265756     5.036967
H     3.085227     2.287521     5.917102
H     4.080955     4.671457     6.323025
O     4.167443     5.398510     5.702075
H     3.602111     5.156921     4.929821
H     2.743986     3.626066     3.942428
O     2.570174     4.566098     3.772309
H     2.454859     4.661521     2.805042
H     9.384934     0.181564    -1.010140
O     8.577751     0.348612    -0.519808
H     8.396827    -0.468158    -0.025666
H    -2.146142     5.369560     10.642948
O    -2.870732     4.743715     10.873535
H    -3.092976     4.925390     11.786905
H     7.947108    -3.034449     0.395725
O     8.369948    -2.188337     0.647666
H     8.301177    -2.175902     1.609681
H     5.351929     3.664889     3.556027
O     6.005914     3.930361     4.224464
H     5.593368     4.651730     4.721578
H    -4.251173     5.074432     9.768924
O    -4.880470     5.224278     9.043373
H    -5.494676     4.477576     9.041302
H    -7.019291    -3.469613    -3.481246
O    -7.639724    -4.081136    -3.930091
H    -7.116928    -4.527664    -4.628172
H    -0.015779     6.172795     10.769168
O    -0.878486     6.505233     10.516814
H    -0.757866     6.932298     9.649435
H     2.597521     1.474180    -4.078610
O     3.476016     1.825032    -3.837282
H     3.791122     1.312400    -3.063197
H    -7.018497    -0.168283     7.211763
O    -7.525767     0.613008     7.486625
H    -8.145767     0.795040     6.779366
H    -2.779261    -9.866831    -0.782097
O    -2.714756    -8.926160    -0.947275
H    -3.620012    -8.556819    -0.710434
H    -10.052332     3.088125    -4.932095
O    -10.173159     2.172077    -4.648360
H    -10.392826     2.260328    -3.699915
H    -2.110412    -2.998371     4.638182
O    -2.986464    -3.435656     4.705769
H    -2.978688    -4.056727     3.951869
H    -0.428960    -7.815968     2.517348
O     0.390834    -7.748676     3.032688
H     1.114135    -8.044905     2.434558
H     6.665905    -2.356253     6.449551
O     7.111140    -3.072358     5.991757
H     6.479134    -3.805302     5.963926
H    -5.321854    -1.958849     6.950338
O    -5.994366    -1.460442     6.461528
H    -5.975806    -1.841251     5.553960
H     0.861960     3.004572    -7.101088
O     1.778835     2.670781    -7.151850
H     1.765511     1.920955    -7.774943
H    -3.972807     8.796422     6.643283
O    -3.966216     8.790362     5.685957
H    -4.093292     7.862188     5.421359
H    -2.031882     10.311489    -2.764625
O    -2.931834     10.494330    -3.070712
H    -2.855628     11.125241    -3.785849
H     9.368839    -4.075569     4.121306
O     9.073717    -4.749810     4.741113
H     8.655070    -4.270247     5.466974
H    -0.740583    -6.015411    -5.799672
O    -0.040409    -6.582342    -5.460077
H     0.797569    -6.125031    -5.676504
H     1.832732     8.274611     0.661815
O     1.534066     8.593802    -0.218263
H     2.351027     8.627486    -0.745505
H     3.521729     2.895535    -6.637202
O     4.346771     2.604661    -6.223214
H     4.096850     2.335325    -5.314344
H     3.745233     7.111298    -1.220025
O     3.954726     8.045571    -1.436175
H     4.327419     7.984974    -2.327755
H     4.415486    -0.049362    -7.871114
O     4.789168     0.099480    -7.000650
H     4.609047     1.032940    -6.761824
H     6.024222     1.916030    -0.435616
O     6.593361     2.104260    -1.195762
H     7.415848     1.623402    -0.996335
H     6.658555    -8.445594    -1.541862
O     7.304706    -8.239004    -2.274121
H     7.662659    -9.078561    -2.557265
H    -5.308700    -5.791988    -5.386313
O    -5.922486    -5.119264    -5.706163
H    -5.368004    -4.353804    -5.943891
H     0.656456     7.203705     7.597812
O    -0.246511     7.234883     7.953378
H    -0.798531     7.248139     7.133508
H    -8.901968    -2.821552    -4.107781
O    -9.420545    -2.010721    -3.945660
H    -9.130049    -1.349412    -4.577509
H    -2.432748    -5.988202    -2.108740
O    -3.307962    -5.698541    -2.383185
H    -3.492876    -6.077357    -3.267677
H    -2.994001    -5.910661    -5.377813
O    -3.597817    -6.516365    -4.905549
H    -3.119227    -7.337531    -4.733251
H    -1.363505     3.705842    -6.981635
O    -0.826582     2.949582    -6.705528
H    -1.063563     2.162975    -7.253353
H    -0.181635     0.388161    -8.196973
O    -1.078017     0.627401    -7.918055
H    -1.258302     0.107176    -7.119062
H    -10.413259     4.075120    -2.773113
O    -10.485342     3.298930    -2.202170
H    -9.658225     3.272133    -1.689705
H     4.570105     4.076363     1.745979
O     4.358871     3.156778     2.027162
H     5.074481     2.578423     1.750402
H     6.493807     1.364618    -4.175871
O     6.186365     0.744186    -3.480432
H     6.214831     1.243379    -2.638777
H     9.616515    -2.255774    -0.858824
O     9.897893    -2.043853    -1.757598
H     9.099988    -1.706273    -2.206390
H     9.959425    -3.359509    -3.022456
O     9.692170    -4.013749    -3.694928
H     9.303671    -3.508452    -4.419583
H    -7.729780    -8.556582    -1.644436
O    -6.990149    -7.964374    -1.772291
H    -7.365493    -7.050490    -1.767137
H     4.180505     6.056341    -3.805363
O     4.843211     6.756009    -3.720039
H     5.677606     6.300267    -3.577627
H     0.082104    -8.189385    -5.161781
O     0.101315    -9.171496    -5.025886
H     0.256113    -9.539684    -5.895803
H    -2.359957    -8.675395    -2.670379
O    -2.121303    -8.414820    -3.579790
H    -1.475689    -9.037108    -3.933878
H     2.156082    -10.833001    -3.415899
O     2.114098    -9.877831    -3.404751
H     1.328142    -9.610308    -3.930919
H     6.850906     3.295046    -4.536994
O     6.909955     2.613531    -5.234530
H     6.119394     2.746924    -5.779439
H    -3.622452    -3.679565     7.741962
O    -3.730936    -2.893351     7.208347
H    -3.477459    -3.137229     6.291897
H    -0.632413    -3.384465    -6.692441
O     0.000107    -2.654925    -6.699743
H    -0.481107    -1.876708    -6.363725
H     0.593611     0.493517     8.773844
O     0.599787    -0.223074     8.135175
H    -0.323578    -0.508341     8.046755
H    -5.808729     7.371103    -4.283539
O    -6.310932     6.751430    -4.844296
H    -6.602613     6.023709    -4.251450
H    -4.252635     9.105713    -3.295487
O    -4.790929     8.311441    -3.188360
H    -4.387043     7.833736    -2.445822
H    -9.689068     5.809756    -4.688373
O    -10.225333     5.007221    -4.523873
H    -11.104016     5.209218    -4.847250
H     2.747150     6.534497     6.148032
O     1.786941     6.633886     6.241556
H     1.441202     5.721156     6.141211
H     4.813675     8.536484     0.092672
O     5.127236     8.539989     1.014922
H     5.531326     7.675146     1.150824
H     4.126491    -7.453798    -4.272715
O     3.369393    -7.736520    -4.817296
H     3.085006    -8.576067    -4.440557
H     0.369678     8.677941     4.223449
O     1.046588     8.030535     4.000835
H     1.268157     7.540362     4.818433
H     5.246665     4.166614    -3.130471
O     6.207799     4.133911    -3.073550
H     6.411846     3.555078    -2.322400
H    -2.628515    -1.505278     7.589915
O    -2.116428    -0.712610     7.808129
H    -2.741479    -0.083193     8.178288
H    -9.001319     7.949805    -4.194280
O    -8.936571     7.361896    -4.948349
H    -7.979398     7.194747    -5.078919
H     3.301448    -8.889579     1.990719
O     2.604115    -8.409729     1.511444
H     2.991699    -7.521084     1.486134
H     3.585873     8.171565     1.834339
O     2.793569     7.610393     1.945656
H     2.344257     7.850888     2.768734
N     4.893453    -8.769853     3.277847
H     5.595487    -8.302669     2.807026
H     4.587949    -8.135009     3.935653
