21
Coordinates from ORCA-job grain_mol_opt.QMRegion
  H   3.42796921806566     -6.10095677161895      3.12990891220477
  O   3.78027818735642     -5.89696478448928      2.22479148227178
  H   3.02822859283160     -5.55059792220829      1.69558261292436
  H   6.64003575188923     -5.83097414982294      0.69396074404022
  O   6.27407911139743     -6.61975527219720      1.16826573837586
  H   5.36469133388779     -6.34647827514147      1.39636875374892
  H   5.89180975567564     -7.82495282868301      0.00444261031990
  O   5.65676427371769     -8.59220078758679     -0.57634721092936
  H   4.79549329373946     -8.34552383384854     -0.97608369113499
  H   2.40682654616042     -8.12971662235383     -0.86680566990379
  O   3.03157638890033     -8.10426569030667     -1.61372776194604
  H   2.71903968349378     -8.77740520140810     -2.24267071944209
  H   6.88854833784895     -8.49849470145821     -1.79849950571350
  O   7.47412277255562     -8.18525939486756     -2.52689295615670
  H   7.64773170586381     -8.92935139347832     -3.10427899650601
  H   3.27398582656302     -9.10175943834772      1.46790453545899
  O   2.70633201646150     -8.32494236785603      1.28669039403723
  H   3.23152065029401     -7.56859788083849      1.60292658724116
  O   4.64845915089209    -10.29528081974964      1.35421827618847
  H   5.11807433985535     -9.79123021365837      0.64996683271689
  H   5.25639735103271    -10.30652967371823      2.09902963801802
