603

H     0.212499     3.040641    -0.674115
O     0.736576     2.376634    -1.171188
H     1.675181     2.499897    -0.892764
H    -0.071516    -1.299937     3.149546
O     0.321390    -0.598988     2.606582
H    -0.156748     0.214042     2.840498
H    -2.390750     2.421186    -0.535769
O    -2.175173     1.951122     0.287673
H    -2.196697     1.003203     0.062693
H    -4.655961     0.560351     2.178047
O    -4.973152    -0.372787     2.191275
H    -4.470275    -0.850467     1.523436
H     0.070368    -0.301429     0.952364
O    -0.124200    -0.062571     0.025274
H     0.214956     0.834089    -0.091841
H    -0.153625    -3.570154     3.775447
O    -0.431285    -2.739518     4.195752
H     0.213919    -2.570985     4.898872
H    -4.876917     2.545160     1.327081
O    -4.237701     2.135017     1.942003
H    -3.395163     2.115731     1.429269
H    -3.238663     3.910201    -2.207701
O    -2.504226     3.309753    -1.973284
H    -2.146606     3.025239    -2.834597
H    -0.121695    -3.795853     0.500808
O     0.218725    -2.978602     0.918961
H    -0.568645    -2.492096     1.230757
H    -2.374099    -1.528416     2.466328
O    -2.183859    -1.993535     1.625232
H    -2.442223    -1.406270     0.895808
H     2.079929    -1.436341    -1.120548
O     2.310418    -1.688839    -0.202715
H     1.520723    -2.116797     0.179934
H    -1.384829     1.833826     1.911595
O    -1.474383     1.436224     2.787830
H    -1.460982     2.148167     3.453233
H     0.214330    -2.693659    -1.572152
O    -0.539897    -2.080326    -1.627310
H    -0.360647    -1.355596    -0.991894
H    -3.432663    -2.912275    -0.396774
O    -2.714630    -3.404580    -0.816069
H    -2.004300    -2.774226    -1.034101
H     2.777353     0.133024     2.935621
O     2.875876    -0.050046     3.897124
H     2.967635     0.842168     4.302833
H    -3.479296     6.403517    -0.455632
O    -3.278401     7.067058    -1.174034
H    -3.120133     7.915840    -0.711900
H     3.909051     0.586934     1.189290
O     2.957669     0.408181     1.303156
H     2.720038    -0.344826     0.724426
H    -5.771883     0.860010    -1.609895
O    -4.861121     1.185451    -1.480251
H    -4.972237     2.014324    -0.969688
H    -1.200076     5.405969     2.215414
O    -1.824116     4.659629     2.093269
H    -1.907024     4.239466     2.954724
H     3.504400     2.766584     0.429558
O     3.255922     2.726628    -0.509812
H     3.587689     1.883987    -0.861682
H     1.495203    -4.687831    -2.253162
O     1.560409    -3.910850    -1.679666
H     2.355925    -3.450761    -2.029958
H    -0.913160    -0.074724    -2.551736
O    -0.275693     0.577187    -2.871024
H    -0.018850     1.157165    -2.131723
H     1.701526    -4.678429    -0.181755
O     1.807320    -5.315970     0.560546
H     1.343176    -6.126494     0.263703
H    -1.221247    -3.253361    -2.884041
O    -1.046400    -3.936143    -3.544973
H    -0.922175    -4.783729    -3.076554
H    -2.773510     3.318276     4.703687
O    -1.792037     3.315628     4.670299
H    -1.500491     2.912406     5.506396
H     0.970895     5.039835     4.080678
O     0.025006     5.273551     4.127706
H    -0.448737     4.471829     4.387619
H    -1.727667    -4.639299    -0.376569
O    -0.963200    -5.180771    -0.091111
H    -1.312119    -5.868100     0.485818
H    -4.046330     5.835473    -2.510010
O    -4.300415     4.980164    -2.865544
H    -4.134469     4.994790    -3.841986
H    -2.428878    -3.678738     1.930941
O    -2.448475    -4.582999     2.306425
H    -1.509138    -4.822383     2.447419
H    -4.689191    -2.962512    -2.905771
O    -3.836300    -3.195966    -3.310803
H    -3.507433    -3.990800    -2.846189
H     0.344759     1.382865     4.615005
O     0.851269     2.143265     4.282145
H     0.900088     2.800925     4.990233
H    -4.652340    -5.154502    -1.578941
O    -5.353897    -4.800469    -1.005295
H    -5.142048    -5.156047    -0.121332
H     2.329681    -6.472157    -4.043227
O     1.992706    -6.143363    -3.189672
H     2.425608    -6.718576    -2.526614
H     0.473663    -3.367417    -4.008184
O     1.276887    -3.000303    -4.430374
H     0.958069    -2.628717    -5.279155
H     1.966516    -1.748356     2.981911
O     2.121384    -2.678993     2.763531
H     1.435543    -2.891762     2.096174
H    -3.007086    -1.793316    -3.214031
O    -2.583537    -0.907505    -3.148039
H    -3.238443    -0.260704    -3.467563
H    -3.176654     4.990060     1.076632
O    -3.951660     5.370708     0.617090
H    -4.371214     5.924738     1.323607
H     0.883010     2.260064     2.592671
O     0.987191     2.258179     1.621553
H     1.712134     1.632136     1.458182
H     0.236214     5.624497    -0.682171
O     0.730127     6.307766    -1.200803
H     0.889953     7.085606    -0.618718
H     0.354814     7.044516     2.594504
O    -0.002752     6.667235     1.773490
H     0.658387     5.991060     1.519440
H    -2.475457     0.224937     3.339027
O    -2.697890    -0.589264     3.843136
H    -1.937951    -0.629875     4.465405
H    -0.890852     0.560214     6.024541
O    -0.615896     0.042213     5.249441
H     0.095772    -0.563298     5.536494
H     0.709960    -4.987543     1.976537
O     0.167275    -5.096607     2.780769
H     0.310313    -6.017689     3.052269
H    -2.121013    -8.076921     0.439913
O    -1.798529    -7.589633     1.225538
H    -2.584833    -7.278210     1.681467
H    -0.348794     6.821861    -2.237157
O    -1.097638     7.206507    -2.776389
H    -1.880209     7.102505    -2.180926
H    -1.101846     4.320910     0.573212
O    -0.731765     4.385284    -0.324097
H    -1.439147     4.135240    -0.954400
H    -4.402282     2.759112     3.505113
O    -4.399876     2.929200     4.469727
H    -4.485423     2.046129     4.878502
H     2.023948    -3.578735     4.242629
O     1.958928    -4.051325     5.095503
H     2.466183    -3.515819     5.726948
H     4.690844    -3.191827     0.839621
O     4.531348    -3.114503    -0.126947
H     3.672701    -2.636910    -0.210485
H    -2.715864    -0.734562    -1.354966
O    -3.042519    -0.463876    -0.480420
H    -3.843353     0.061695    -0.687609
H    -1.608091    -0.746483    -4.634353
O    -1.099401    -0.530805    -5.437362
H    -0.389205     0.064201    -5.150826
H     1.803086    -1.705815    -3.377507
O     1.896343    -0.958972    -2.754367
H     1.118592    -0.382258    -2.884550
H     3.664689    -3.119489     2.550375
O     4.623565    -3.349169     2.477663
H     4.677221    -4.309524     2.603758
H     3.424084    -6.118619     3.120599
O     3.780685    -5.917053     2.220891
H     3.043733    -5.570831     1.677641
H    -3.333877     1.625541    -4.179478
O    -4.178539     1.154635    -3.988726
H    -4.396902     1.302295    -3.032834
H    -5.072645     4.165080     0.060140
O    -5.510459     3.298750    -0.037210
H    -6.440887     3.415983    -0.322432
H     6.740594    -1.180142    -1.359245
O     5.967539    -1.029371    -0.808811
H     5.547813    -1.896951    -0.611494
H     4.598929    -3.163829    -2.470542
O     3.731657    -2.990711    -2.887076
H     3.734511    -3.609327    -3.643448
H     4.435403    -2.294128     5.622592
O     4.091246    -2.759534     6.415180
H     4.425067    -3.664989     6.333263
H    -0.743218     6.344815     5.077854
O    -1.339500     6.920715     5.615956
H    -1.351982     7.798289     5.175731
H     4.706017    -0.131122    -1.464140
O     3.939340     0.412498    -1.727028
H     3.246751    -0.187689    -2.057966
H    -0.596177     4.418303    -4.044000
O    -1.421187     4.915417    -4.232952
H    -1.329163     5.726696    -3.704100
H     0.686343     3.199590    -2.649867
O     0.704302     3.579832    -3.558512
H     0.737368     2.819702    -4.149574
H    -5.384038    -5.179367     1.786106
O    -4.687721    -5.774677     1.431049
H    -3.846995    -5.359886     1.702575
H     7.888832    -1.688508    -4.030712
O     7.630760    -1.375244    -3.131029
H     7.145089    -0.530939    -3.287416
H     3.705255    -5.063662    -5.292409
O     4.467821    -4.691514    -4.810459
H     4.851189    -5.403618    -4.265258
H    -3.781314     0.028636     4.931604
O    -4.381502     0.493441     5.564046
H    -5.042865    -0.163912     5.855213
H     3.464439    -5.937355    -0.522251
O     4.337625    -5.690868    -0.839369
H     4.414962    -4.728812    -0.695048
H     5.010103    -0.330854    -4.157815
O     4.473082    -1.040157    -4.548804
H     4.146428    -1.624670    -3.832005
H    -1.159727     1.577643    -3.938658
O    -1.812682     2.195787    -4.322416
H    -1.458991     2.536158    -5.166021
H     4.885564    -6.317600    -2.317459
O     5.218748    -6.641826    -3.183198
H     6.035741    -7.124447    -2.996334
H     8.742641    -5.092055    -2.917185
O     8.050362    -5.509091    -2.359593
H     8.083847    -6.466427    -2.462233
H     2.353680     4.720944     0.457544
O     1.767496     4.708199     1.223189
H     1.412127     3.786783     1.305538
H    -4.414849    -2.622845     4.226263
O    -5.308244    -2.281991     4.023711
H    -5.170162    -1.500773     3.448662
H    -5.844213    -3.180357     1.310844
O    -6.307630    -3.737478     1.978636
H    -6.119714    -3.302653     2.829582
H     1.692056     3.471925     6.864777
O     1.070471     3.989136     6.330825
H     0.287067     4.142199     6.902181
H     5.002567    -2.169115     3.617272
O     5.023581    -1.450836     4.281466
H     4.212350    -0.893963     4.124956
H     2.387039    -5.574025     4.835583
O     2.766391    -6.457906     4.575033
H     2.020909    -7.038631     4.400149
H     2.262007    -4.504906    -6.793267
O     2.092375    -4.993416    -5.977833
H     1.827895    -4.302503    -5.322159
H     6.441633    -4.102077    -0.503049
O     7.194311    -4.505775    -0.039525
H     7.701445    -4.929064    -0.760134
H    -1.718981     4.496503     7.702082
O    -0.819698     4.593561     8.087024
H    -0.638420     5.552507     8.113513
H    -5.173344     5.727717    -5.531489
O    -4.528170     4.989942    -5.532266
H    -3.793354     5.220627    -6.135178
H     3.289563    -2.516504    -8.437915
O     3.200566    -3.048567    -7.636346
H     4.077258    -3.026693    -7.207638
H    -0.607138     8.852509    -2.143462
O    -0.467108     9.692631    -1.660933
H     0.244921     9.482659    -1.027407
H     2.068410    -0.909322     5.212170
O     1.494278    -1.434714     5.798540
H     1.587822    -1.090354     6.696160
H     5.212973    -2.018082    -5.692258
O     5.558822    -2.784308    -6.214316
H     5.283476    -3.574382    -5.697641
H     5.692371    -5.215946     4.685382
O     5.169660    -5.130430     5.511713
H     4.447783    -5.761965     5.425802
H    -3.971180     1.156374     7.004625
O    -3.778696     1.632103     7.848383
H    -4.654678     2.018295     8.109167
H    -1.832856     9.641828    -0.765341
O    -2.694123     9.495106    -0.291972
H    -3.312870     10.140282    -0.633316
H    -5.944270     4.701744    -2.936252
O    -6.852662     4.579237    -3.280783
H    -6.758556     3.882175    -3.962314
H     0.093123    -7.054853    -1.148618
O     0.556522    -7.491316    -0.400704
H    -0.123364    -7.686292     0.247389
H    -7.627680     3.808982    -1.973746
O    -7.887239     3.221877    -1.232175
H    -7.747233     2.313767    -1.573975
H     3.973635    -0.892435     6.988231
O     3.983348     0.071740     6.978652
H     4.796952     0.360348     6.548730
H     2.273389     5.800626    -1.174777
O     3.207635     5.510305    -1.063829
H     3.384087     4.968255    -1.856399
H     6.549275    -5.929287     0.671488
O     6.179444    -6.665385     1.204556
H     5.275100    -6.387383     1.431034
H    -3.861834     4.739257     7.780340
O    -3.295174     4.276425     7.121209
H    -3.489841     3.333138     7.231102
H     5.758869    -7.944005     0.135627
O     5.470650    -8.630333    -0.502518
H     4.641950    -8.303803    -0.896914
H    -0.554290     2.047605     7.693428
O    -1.186955     1.985008     6.957663
H    -2.055866     1.843714     7.353550
H    -6.379069    -0.104983     1.058881
O    -6.696924    -0.188458     0.145332
H    -7.616399    -0.456986     0.160750
H    -5.369274    -3.047660    -0.593665
O    -5.116105    -2.345962     0.032346
H    -5.685751    -1.572586    -0.154889
H     4.331117     5.581577     0.325565
O     4.663596     5.682811     1.230868
H     3.968905     6.192132     1.683657
H    -9.038714    -1.723187    -2.260121
O    -8.490780    -1.523345    -1.473644
H    -8.619836    -2.260094    -0.836564
H    -5.506040     3.495159    -5.530791
O    -6.025029     2.783557    -5.119797
H    -5.361168     2.196441    -4.704867
H     3.188231    -0.879806    -5.654636
O     2.332244    -0.997454    -6.120815
H     2.416529    -1.846280    -6.594984
H     8.122396    -1.347297    -6.026203
O     8.129009    -2.211202    -5.569671
H     7.272707    -2.610313    -5.821300
H     7.631431     0.994360    -6.306330
O     7.441497     0.146298    -6.719469
H     6.460173     0.097522    -6.756746
H    -7.859590    -3.674866     0.923078
O    -8.537391    -3.566599     0.238385
H    -8.439935    -4.325701    -0.363809
H    -2.389078     8.749834     1.288557
O    -2.241539     8.162069     2.042571
H    -1.471929     7.606770     1.823949
H    -4.433964     6.448178     3.496278
O    -4.600933     6.873947     2.639002
H    -3.838491     7.461304     2.502746
H     3.419077     3.454415    -3.573032
O     3.263881     4.423985    -3.479442
H     2.298798     4.482405    -3.589752
H    -6.109997    -1.586614    -3.447358
O    -6.193556    -2.166260    -2.663618
H    -6.977735    -1.858678    -2.155395
H     6.472124     1.048211     4.743457
O     6.077788     1.587526     5.445847
H     6.268324     2.505898     5.156075
H     1.372727     1.733182    -5.822873
O     1.177926     1.138881    -5.066922
H     1.539192     0.274688    -5.336722
H    -2.486364     2.970691     10.483702
O    -2.274562     2.063251     10.209536
H    -2.872507     1.864526     9.477098
H     7.630730    -0.499437     3.087069
O     6.881079     0.076937     3.255361
H     6.188200    -0.523106     3.634403
H    -5.662692    -8.037566    -0.709134
O    -4.927969    -8.107274    -0.062600
H    -4.931375    -7.290418     0.460021
H    -5.169859    -0.100579    -4.718581
O    -5.787460    -0.811657    -4.959291
H    -6.624768    -0.368408    -5.157765
H     1.899464    -0.186330    -7.515097
O     1.699278     0.287314    -8.358264
H     2.274626    -0.118806    -9.011992
H     4.881040    -1.384729    -9.303332
O     3.956293    -1.154078    -9.585240
H     3.935982    -1.270865    -10.534438
H     7.564171    -2.573302     4.202332
O     7.710922    -2.608368     3.242782
H     7.217604    -3.399072     2.970323
H     6.717837    -5.895325     2.684801
O     6.780031    -5.220292     3.386073
H     7.655475    -5.306910     3.804575
H    -1.807872     8.958908     3.499486
O    -1.558768     9.261868     4.397558
H    -2.406827     9.395304     4.854441
H    -7.378947     1.591160    -5.255749
O    -7.954158     0.847823    -5.009481
H    -8.855912     1.248268    -4.934646
H     6.935319    -1.077826    -8.401970
O     6.352130    -1.797680    -8.666061
H     6.123681    -2.248064    -7.834575
H    -1.782699     6.244747    -6.953264
O    -2.125461     5.387175    -6.690684
H    -1.763079     5.251836    -5.763737
H     0.004887     3.316672     9.024625
O     0.200899     2.396556     9.279097
H    -0.597980     2.132975     9.785104
H     6.760068    -2.777538    -2.703408
O     6.228388    -3.521102    -2.362960
H     6.695945    -4.332512    -2.609496
H    -4.073072    -3.055171    -4.947944
O    -4.225802    -2.941846    -5.912847
H    -4.772886    -2.148620    -5.969170
H     1.983191     2.187644     8.466945
O     2.647211     2.299261     7.776845
H     3.068608     1.428529     7.662068
H    -6.907745    -5.182528    -1.402323
O    -7.823318    -5.451206    -1.648481
H    -7.956155    -5.047984    -2.531295
H    -3.819730     5.268541     5.696856
O    -3.784747     6.036761     5.105805
H    -2.850779     6.330024     5.201926
H    -7.878601     0.108137    -1.971905
O    -7.386492     0.830918    -2.383895
H    -7.614704     0.822644    -3.337340
H     5.842859     0.132184     0.415054
O     5.621642     0.853814     1.036227
H     6.131342     0.657053     1.849288
H    -6.209822     3.325684     7.394481
O    -6.082642     2.806916     8.222831
H    -6.683950     2.046430     8.134049
H     2.274086    -8.066468    -0.846126
O     2.951537    -8.054164    -1.541940
H     2.726280    -8.767738    -2.155549
H    -2.740700    -3.944932    -6.201216
O    -1.987361    -4.511720    -5.969587
H    -1.711657    -4.221346    -5.071912
H    -5.636556     3.776651     5.307579
O    -6.284980     4.173513     5.925114
H    -6.121876     5.117598     5.911113
H    -1.019954    -7.101787    -3.167195
O    -0.546765    -6.432701    -2.638656
H     0.360815    -6.364295    -3.019401
H     4.449394     2.018458     5.132641
O     3.508437     2.260457     5.011805
H     3.123348     2.275250     5.893444
H     4.117287     4.658995     6.306615
O     4.199429     5.388938     5.688444
H     3.631520     5.149409     4.917775
H     2.772123     3.622169     3.927519
O     2.596213     4.562464     3.760090
H     2.477469     4.660384     2.794011
H     9.399949     0.209694    -1.066182
O     8.593498     0.373427    -0.573567
H     8.416758    -0.445282    -0.080477
H    -2.095422     5.329175     10.652355
O    -2.818228     4.701299     10.882767
H    -3.037358     4.878497     11.797776
H     7.974827    -3.009715     0.330048
O     8.396281    -2.163346     0.585851
H     8.330565    -2.159354     1.548184
H     5.377887     3.666252     3.531242
O     6.035251     3.931984     4.195878
H     5.623036     4.649115     4.699343
H    -4.203210     5.034576     9.784843
O    -4.835096     5.186477     9.061969
H    -5.448492     4.439096     9.059222
H    -7.007731    -3.457666    -3.490988
O    -7.628509    -4.069112    -3.939533
H    -7.107880    -4.511137    -4.642001
H     0.034361     6.135168     10.774050
O    -0.829762     6.467207     10.526067
H    -0.712971     6.898603     9.660402
H     2.600307     1.505111    -4.104241
O     3.477645     1.858648    -3.862407
H     3.797421     1.340221    -3.093727
H    -6.971487    -0.201994     7.216096
O    -7.478711     0.577458     7.496202
H    -8.101980     0.761360     6.792304
H    -2.749002    -9.859514    -0.836000
O    -2.684467    -8.917851    -0.995225
H    -3.590148    -8.550402    -0.754927
H    -10.056630     3.101501    -4.902565
O    -10.174584     2.183893    -4.622200
H    -10.391014     2.268286    -3.672642
H    -2.068420    -3.013344     4.611745
O    -2.943817    -3.452384     4.680942
H    -2.938328    -4.069977     3.924456
H    -0.183838    -7.973427     2.482060
O     0.642634    -7.763770     2.930166
H     1.360772    -8.060675     2.343690
H     6.704863    -2.377128     6.395538
O     7.153618    -3.086846     5.931267
H     6.523069    -3.821182     5.892503
H    -5.272911    -1.988574     6.940535
O    -5.947979    -1.489077     6.456361
H    -5.932339    -1.866148     5.547194
H     0.851303     3.053923    -7.113292
O     1.764316     2.711753    -7.164663
H     1.748033     1.967967    -7.795104
H    -3.943270     8.771303     6.673286
O    -3.937137     8.768206     5.715961
H    -4.066233     7.841083     5.448688
H    -2.203899     10.331577    -3.241639
O    -2.847825     9.946049    -3.846462
H    -2.300731     9.466693    -4.496185
H     9.409121    -4.065060     4.047509
O     9.127837    -4.742992     4.669582
H     8.698919    -4.270353     5.393873
H    -0.733921    -5.983213    -5.844000
O    -0.031369    -6.550582    -5.509983
H     0.804855    -6.090408    -5.727471
H     1.850041     8.281343     0.678251
O     1.545447     8.597864    -0.201803
H     2.360168     8.641800    -0.731895
H     3.509684     2.937447    -6.660385
O     4.337206     2.649109    -6.249592
H     4.091214     2.373264    -5.341660
H     3.750381     7.130996    -1.225662
O     3.952069     8.066879    -1.442029
H     4.328379     8.008828    -2.332335
H     4.404316     0.000019    -7.909743
O     4.780980     0.146806    -7.040175
H     4.600313     1.078908    -6.797537
H     6.039586     1.934707    -0.470998
O     6.604778     2.129123    -1.232612
H     7.428780     1.647908    -1.039628
H     6.679773    -8.429346    -1.607442
O     7.316136    -8.218988    -2.343730
H     7.681821    -9.053520    -2.632105
H    -5.300275    -5.768764    -5.412906
O    -5.916450    -5.095788    -5.727450
H    -5.364419    -4.328198    -5.963994
H     0.693169     7.181356     7.604125
O    -0.208392     7.209561     7.963291
H    -0.763917     7.225142     7.146060
H    -8.893743    -2.810221    -4.107810
O    -9.412939    -2.001158    -3.939439
H    -9.126653    -1.336217    -4.569411
H    -2.411033    -5.974213    -2.147258
O    -3.288429    -5.686063    -2.416277
H    -3.475994    -6.060316    -3.302163
H    -2.985874    -5.883124    -5.413775
O    -3.586418    -6.492187    -4.941562
H    -3.105818    -7.313347    -4.775534
H    -1.370181     3.764873    -6.982233
O    -0.845080     3.006475    -6.703853
H    -1.078589     2.221533    -7.257423
H    -0.194535     0.439616    -8.215640
O    -1.086521     0.683646    -7.927042
H    -1.266670     0.152225    -7.135413
H    -10.411108     4.078151    -2.738373
O    -10.479481     3.299549    -2.169981
H    -9.650864     3.273059    -1.660162
H     4.592362     4.083415     1.724801
O     4.379133     3.163056     2.000110
H     5.095018     2.585128     1.722731
H     6.495209     1.402013    -4.215969
O     6.190152     0.778732    -3.522223
H     6.222569     1.273298    -2.678047
H     9.636227    -2.227944    -0.925986
O     9.913548    -2.012648    -1.825333
H     9.113619    -1.673589    -2.269168
H     9.972348    -3.322022    -3.095703
O     9.704319    -3.973469    -3.770742
H     9.311886    -3.465245    -4.491242
H    -7.702821    -8.553682    -1.673532
O    -6.964172    -7.960088    -1.800700
H    -7.340904    -7.046649    -1.790875
H     4.176725     6.081284    -3.817974
O     4.831940     6.788172    -3.733019
H     5.670827     6.339322    -3.594793
H     0.095276    -8.157625    -5.219356
O     0.118036    -9.140554    -5.087808
H     0.267994    -9.504288    -5.960477
H    -2.336914    -8.658939    -2.720711
O    -2.101947    -8.394643    -3.629832
H    -1.456470    -9.014120    -3.988895
H     2.177272    -10.807009    -3.499754
O     2.132224    -9.852421    -3.474958
H     1.347374    -9.580547    -4.001465
H     6.847837     3.335395    -4.570689
O     6.904638     2.656917    -5.271090
H     6.111837     2.790867    -5.812536
H    -3.567643    -3.709979     7.718071
O    -3.679798    -2.921646     7.188348
H    -3.428942    -3.160920     6.269998
H    -0.633221    -3.347811    -6.726538
O    -0.002034    -2.617113    -6.733107
H    -0.483418    -1.841273    -6.391869
H     0.643256     0.467738     8.753539
O     0.650126    -0.246113     8.111923
H    -0.272343    -0.534360     8.024341
H    -5.848357     7.383633    -4.230908
O    -6.325455     6.759237    -4.814537
H    -6.622108     6.027991    -4.230624
H    -4.355086     8.930497    -3.337493
O    -5.092904     8.383141    -3.013799
H    -4.704989     7.885546    -2.279460
H    -9.697087     5.822758    -4.645149
O    -10.231984     5.018026    -4.483829
H    -11.111215     5.221198    -4.804884
H     2.779002     6.521258     6.144258
O     1.818792     6.619082     6.239225
H     1.474437     5.705632     6.139356
H     4.820801     8.552670     0.089122
O     5.134352     8.551688     1.011022
H     5.543114     7.688257     1.142152
H     4.141061    -7.418736    -4.344246
O     3.382710    -7.701979    -4.886946
H     3.101266    -8.542956    -4.511693
H     0.391624     8.669181     4.237407
O     1.067413     8.022787     4.008356
H     1.293920     7.530095     4.823364
H     5.248215     4.194741    -3.153131
O     6.209469     4.167577    -3.098218
H     6.418263     3.583290    -2.352466
H    -2.577674    -1.533130     7.571707
O    -2.066748    -0.740158     7.791477
H    -2.691957    -0.113838     8.166546
H    -9.006136     7.965636    -4.151330
O    -8.948704     7.373551    -4.902714
H    -7.991613     7.209559    -5.042203
H     3.524038    -8.974321     1.088124
O     2.848238    -8.341589     1.336893
H     3.323858    -7.537180     1.617580
H     3.599961     8.177392     1.837478
O     2.806876     7.616710     1.946950
H     2.360076     7.850911     2.773489
N    -1.168001     8.224005    -5.405995
H    -0.336951     8.650576    -5.636160
H    -0.997543     7.804535    -4.541190
