603

H     0.200042     3.021012    -0.681961
O     0.725425     2.354422    -1.174840
H     1.663514     2.485567    -0.899368
H    -0.072864    -1.325934     3.138984
O     0.316834    -0.623933     2.595358
H    -0.161984     0.188346     2.830392
H    -2.398205     2.392742    -0.546832
O    -2.189878     1.920335     0.276847
H    -2.199634     0.973432     0.049716
H    -4.663997     0.517498     2.163738
O    -4.978670    -0.417437     2.173088
H    -4.467788    -0.890591     1.508343
H     0.068853    -0.322438     0.940885
O    -0.129853    -0.083902     0.014692
H     0.210113     0.812885    -0.104133
H    -0.146154    -3.597584     3.761013
O    -0.429861    -2.769609     4.182360
H     0.214655    -2.597996     4.885564
H    -4.890220     2.502684     1.314523
O    -4.252347     2.090687     1.929516
H    -3.407710     2.078001     1.419512
H    -3.248633     3.881989    -2.221110
O    -2.510768     3.285440    -1.989513
H    -2.148851     3.001422    -2.849082
H    -0.109926    -3.818688     0.485246
O     0.226452    -3.000958     0.905507
H    -0.562127    -2.516735     1.216511
H    -2.372155    -1.561376     2.451600
O    -2.183672    -2.026177     1.609604
H    -2.437739    -1.436394     0.880808
H     2.085020    -1.447832    -1.130048
O     2.314971    -1.701523    -0.212367
H     1.526574    -2.132700     0.168641
H    -1.393171     1.804986     1.902827
O    -1.488416     1.404628     2.777243
H    -1.475627     2.115219     3.444336
H     0.224635    -2.711790    -1.585786
O    -0.533526    -2.102913    -1.638568
H    -0.355709    -1.376385    -1.004358
H    -3.421516    -2.946899    -0.409327
O    -2.705321    -3.434347    -0.835789
H    -1.994543    -2.802690    -1.050817
H     2.771651     0.118022     2.929555
O     2.868253    -0.066656     3.891088
H     2.957063     0.825467     4.298145
H    -3.540097     6.359828    -0.547352
O    -3.301958     7.024282    -1.245620
H    -3.163349     7.868971    -0.773493
H     3.903222     0.579675     1.185409
O     2.952829     0.395017     1.298891
H     2.719310    -0.356719     0.717221
H    -5.774402     0.818789    -1.626880
O    -4.865181     1.147680    -1.495499
H    -4.979504     1.975642    -0.983783
H    -1.225969     5.377080     2.208368
O    -1.848488     4.628155     2.089040
H    -1.926642     4.207893     2.950735
H     3.490600     2.759233     0.428202
O     3.243938     2.717387    -0.511382
H     3.580316     1.876845    -0.863184
H     1.514395    -4.700601    -2.267840
O     1.574949    -3.924051    -1.693173
H     2.369515    -3.460387    -2.041412
H    -0.910458    -0.094402    -2.560505
O    -0.277794     0.560655    -2.882026
H    -0.019905     1.142358    -2.143647
H     1.717826    -4.693202    -0.196210
O     1.823740    -5.331027     0.545918
H     1.364272    -6.143419     0.246827
H    -1.205851    -3.275499    -2.899679
O    -1.029646    -3.956798    -3.561685
H    -0.901770    -4.804778    -3.094866
H    -2.794194     3.279557     4.695605
O    -1.813048     3.278421     4.663164
H    -1.520757     2.876380     5.499517
H     0.944751     5.016473     4.078255
O    -0.002181     5.245577     4.128870
H    -0.472047     4.440505     4.384431
H    -1.712842    -4.668157    -0.395952
O    -0.946666    -5.204784    -0.107302
H    -1.293080    -5.898252     0.463915
H    -3.922742     5.815129    -2.604590
O    -4.270335     4.980689    -2.936932
H    -4.113280     4.948624    -3.904943
H    -2.409232    -3.707384     1.915836
O    -2.421367    -4.608968     2.297989
H    -1.481362    -4.851579     2.432228
H    -4.676024    -2.998269    -2.926105
O    -3.821979    -3.228424    -3.329602
H    -3.490953    -4.023737    -2.866648
H     0.330994     1.355685     4.608648
O     0.834602     2.118099     4.276909
H     0.881381     2.775507     4.985464
H    -4.558872    -5.249956    -1.595900
O    -5.287604    -4.929683    -1.026572
H    -5.016667    -5.256594    -0.141800
H     2.357778    -6.479511    -4.058603
O     2.017676    -6.153370    -3.205168
H     2.452379    -6.727566    -2.542322
H     0.489689    -3.381769    -4.022520
O     1.292092    -3.011076    -4.442733
H     0.973702    -2.639054    -5.291471
H     1.968458    -1.765997     2.971812
O     2.125774    -2.696179     2.753058
H     1.442464    -2.910132     2.083849
H    -2.997529    -1.822555    -3.230780
O    -2.579012    -0.934818    -3.160793
H    -3.234803    -0.290453    -3.482723
H    -3.201046     4.952709     1.073330
O    -3.983404     5.324028     0.618212
H    -4.401101     5.879980     1.324558
H     0.869869     2.238299     2.587309
O     0.971822     2.235114     1.616215
H     1.701747     1.615300     1.452146
H     0.181820     5.647040    -0.756053
O     0.702389     6.311265    -1.262662
H     0.841488     7.110421    -0.705077
H     0.323517     7.019269     2.596125
O    -0.036152     6.639107     1.777467
H     0.630616     5.971398     1.515720
H    -2.482251     0.189565     3.326071
O    -2.703386    -0.626827     3.827875
H    -1.944038    -0.665042     4.451645
H    -0.903235     0.526289     6.013991
O    -0.627333     0.008445     5.239019
H     0.088406    -0.592655     5.525779
H     0.725934    -5.009535     1.959907
O     0.182361    -5.121916     2.763347
H     0.328120    -6.043235     3.033463
H    -2.096412    -8.106653     0.414835
O    -1.773926    -7.617516     1.199023
H    -2.561397    -7.315265     1.659331
H    -0.388184     6.855729    -2.322112
O    -1.134896     7.274423    -2.821981
H    -1.925519     7.144969    -2.260058
H    -1.121390     4.293398     0.570420
O    -0.746996     4.356755    -0.324883
H    -1.451745     4.114802    -0.959227
H    -4.419146     2.715841     3.493015
O    -4.420527     2.884078     4.457825
H    -4.501915     2.000240     4.865222
H     2.030537    -3.598354     4.230410
O     1.965078    -4.072260     5.082489
H     2.470409    -3.536332     5.715250
H     4.699997    -3.196476     0.831340
O     4.541014    -3.119153    -0.135279
H     3.681217    -2.643923    -0.219421
H    -2.713983    -0.765151    -1.368853
O    -3.049825    -0.504480    -0.494387
H    -3.845820     0.027595    -0.703827
H    -1.599606    -0.767295    -4.646640
O    -1.092223    -0.548165    -5.449136
H    -0.384284     0.049629    -5.161758
H     1.811587    -1.715248    -3.387863
O     1.899943    -0.969833    -2.762405
H     1.121918    -0.394028    -2.894718
H     3.671501    -3.130560     2.540919
O     4.631159    -3.356605     2.469058
H     4.688477    -4.316877     2.593929
H     3.441405    -6.131594     3.106522
O     3.798232    -5.927409     2.207505
H     3.060867    -5.583083     1.663815
H    -3.334233     1.598773    -4.192425
O    -4.178195     1.125200    -4.003938
H    -4.397897     1.269177    -3.047880
H    -5.088411     4.121351     0.054855
O    -5.525200     3.254438    -0.050677
H    -6.454881     3.372933    -0.335437
H     6.744972    -1.173877    -1.362200
O     5.970947    -1.027505    -0.811948
H     5.554247    -1.896870    -0.616974
H     4.612112    -3.164124    -2.478635
O     3.744401    -2.994436    -2.895742
H     3.751290    -3.611489    -3.653360
H     4.434605    -2.306641     5.615271
O     4.090648    -2.774926     6.406355
H     4.428933    -3.678666     6.323832
H    -0.776656     6.312831     5.076575
O    -1.376270     6.885654     5.614557
H    -1.390999     7.763772     5.175109
H     4.706869    -0.133301    -1.467864
O     3.938254     0.407374    -1.730841
H     3.248416    -0.194498    -2.063848
H    -0.741666     4.518027    -4.039806
O    -1.525706     5.059103    -4.247817
H    -1.377197     5.925504    -3.823615
H     0.661284     3.198828    -2.660558
O     0.668883     3.577309    -3.568220
H     0.720003     2.815331    -4.155324
H    -5.186884    -5.248557     1.862999
O    -4.504534    -5.835775     1.476307
H    -3.668865    -5.378772     1.727209
H     7.898587    -1.673853    -4.032357
O     7.637973    -1.363197    -3.132570
H     7.149390    -0.520236    -3.288328
H     3.729890    -5.064145    -5.304237
O     4.490132    -4.689460    -4.820727
H     4.875763    -5.400676    -4.275941
H    -3.789122    -0.014530     4.916690
O    -4.393881     0.446171     5.547715
H    -5.051686    -0.214486     5.838541
H     3.485952    -5.945156    -0.536036
O     4.358434    -5.694608    -0.851648
H     4.432006    -4.732452    -0.705687
H     5.014401    -0.326659    -4.161967
O     4.481346    -1.038401    -4.554283
H     4.155883    -1.624420    -3.838389
H    -1.164235     1.565024    -3.946546
O    -1.815885     2.184457    -4.331965
H    -1.457538     2.518987    -5.176944
H     4.910979    -6.317116    -2.329672
O     5.246304    -6.639103    -3.195385
H     6.065122    -7.118516    -3.008205
H     8.764056    -5.075814    -2.922512
O     8.072626    -5.496344    -2.366428
H     8.110004    -6.453400    -2.470312
H     2.329421     4.712485     0.455528
O     1.748458     4.691211     1.225364
H     1.393498     3.769921     1.300376
H    -4.413062    -2.669185     4.205504
O    -5.308557    -2.336554     3.994318
H    -5.171149    -1.548606     3.427315
H    -5.833287    -3.274159     1.333764
O    -6.274540    -3.808558     2.050442
H    -6.033238    -3.324187     2.872061
H     1.668062     3.446395     6.862540
O     1.044498     3.960862     6.328346
H     0.260302     4.111257     6.899016
H     5.004161    -2.176232     3.610803
O     5.021066    -1.459305     4.276459
H     4.208201    -0.904924     4.119298
H     2.399840    -5.593274     4.821045
O     2.782791    -6.475199     4.559357
H     2.039905    -7.058828     4.383266
H     2.286838    -4.508518    -6.806230
O     2.117156    -4.998920    -5.991910
H     1.849761    -4.309881    -5.335546
H     6.455974    -4.098085    -0.510202
O     7.209305    -4.499909    -0.046126
H     7.719270    -4.919924    -0.766667
H    -1.748144     4.457441     7.696276
O    -0.850295     4.556945     8.083471
H    -0.671875     5.516569     8.110475
H    -5.118267     5.679591    -5.605557
O    -4.508626     4.917699    -5.625849
H    -3.750927     5.135133    -6.190130
H     3.308901    -2.513978    -8.446661
O     3.220811    -3.047964    -7.646253
H     4.096693    -3.022761    -7.215913
H    -0.674479     8.817822    -2.272247
O    -0.554976     9.645414    -1.751294
H     0.206807     9.472091    -1.173575
H     2.062866    -0.930326     5.203296
O     1.489207    -1.458300     5.788018
H     1.581405    -1.115565     6.686431
H     5.226306    -2.011584    -5.697986
O     5.575376    -2.775897    -6.220827
H     5.302845    -3.567640    -5.705347
H     5.704175    -5.222302     4.675734
O     5.179871    -5.140063     5.501422
H     4.460668    -5.774343     5.413586
H    -3.987257     1.109277     6.990880
O    -3.798152     1.583462     7.835886
H    -4.675637     1.966665     8.095963
H    -1.871218     9.599251    -0.740453
O    -2.732278     9.469296    -0.268021
H    -3.344288     10.097195    -0.655550
H    -5.950659     4.668221    -2.951781
O    -6.858622     4.546523    -3.296946
H    -6.764970     3.846357    -3.975887
H     0.119433    -7.074596    -1.168438
O     0.583145    -7.509563    -0.419963
H    -0.097088    -7.709274     0.226311
H    -7.639446     3.764152    -1.991043
O    -7.900223     3.174165    -1.252961
H    -7.754261     2.267219    -1.595984
H     3.966442    -0.908834     6.981951
O     3.972025     0.055354     6.974292
H     4.784646     0.348410     6.545405
H     2.249349     5.792286    -1.174283
O     3.185310     5.501624    -1.058597
H     3.365100     4.963863    -1.852695
H     6.569105    -5.926563     0.661939
O     6.201386    -6.664950     1.193386
H     5.295735    -6.390816     1.419091
H    -3.892462     4.691080     7.772296
O    -3.323690     4.231026     7.113070
H    -3.514335     3.286911     7.221852
H     5.787256    -7.943614     0.122202
O     5.502457    -8.630101    -0.517310
H     4.673086    -8.306240    -0.912350
H    -0.573959     2.012800     7.685662
O    -1.205752     1.947396     6.949278
H    -2.074444     1.803006     7.344303
H    -6.377795    -0.152843     1.035642
O    -6.693500    -0.256707     0.123472
H    -7.620378    -0.496666     0.140555
H    -5.370037    -3.100936    -0.644625
O    -5.181001    -2.426092     0.034856
H    -5.723095    -1.634554    -0.175954
H     4.306195     5.576321     0.329138
O     4.637850     5.675886     1.235282
H     3.941235     6.183672     1.687108
H    -9.029711    -1.769765    -2.292571
O    -8.486869    -1.567847    -1.502244
H    -8.624413    -2.302910    -0.864510
H    -5.519339     3.455754    -5.542165
O    -6.035261     2.742775    -5.129561
H    -5.367681     2.158363    -4.716214
H     3.197448    -0.881093    -5.661583
O     2.342584    -1.002608    -6.128981
H     2.431656    -1.850274    -6.604271
H     8.133317    -1.328906    -6.027072
O     8.142889    -2.193655    -5.572083
H     7.288407    -2.595601    -5.825199
H     7.633874     1.010826    -6.304190
O     7.447937     0.162798    -6.719345
H     6.466832     0.110264    -6.757584
H    -7.983887    -3.533487     0.835697
O    -8.720904    -3.596220     0.211848
H    -8.434314    -4.256416    -0.466931
H    -2.429310     8.716123     1.295136
O    -2.278592     8.126248     2.047173
H    -1.506257     7.575986     1.824920
H    -4.463807     6.405338     3.490654
O    -4.633620     6.831941     2.634363
H    -3.871857     7.420696     2.497349
H     3.402283     3.450265    -3.574676
O     3.246056     4.418864    -3.479474
H     2.281303     4.481279    -3.589095
H    -6.099913    -1.629898    -3.466220
O    -6.182915    -2.207404    -2.680559
H    -6.970225    -1.900004    -2.177883
H     6.459719     1.045182     4.743468
O     6.062539     1.581479     5.446533
H     6.248890     2.501239     5.157856
H     1.371595     1.724912    -5.827234
O     1.176955     1.126981    -5.074536
H     1.543835     0.265609    -5.345335
H    -2.513685     2.924379     10.474674
O    -2.298578     2.017925     10.199722
H    -2.894550     1.818180     9.466055
H     7.626699    -0.496025     3.086395
O     6.874620     0.077132     3.254713
H     6.183512    -0.525850     3.631868
H    -5.759112    -8.221351    -0.231051
O    -4.859206    -8.307111     0.150534
H    -4.743254    -7.469204     0.624637
H    -5.165088    -0.135639    -4.735194
O    -5.780349    -0.848865    -4.975222
H    -6.618776    -0.408822    -5.176037
H     1.908274    -0.190953    -7.522422
O     1.706809     0.282054    -8.365671
H     2.285745    -0.120284    -9.018593
H     4.896876    -1.374412    -9.308161
O     3.971622    -1.147423    -9.591630
H     3.953593    -1.263664    -10.540927
H     7.566311    -2.571575     4.198788
O     7.714794    -2.605203     3.239470
H     7.224463    -3.397114     2.965224
H     6.734885    -5.894970     2.675557
O     6.793348    -5.220830     3.377990
H     7.668688    -5.304438     3.797404
H    -1.847740     8.924318     3.500627
O    -1.602571     9.227647     4.400093
H    -2.452556     9.357340     4.854136
H    -7.380703     1.546819    -5.272555
O    -7.953894     0.801112    -5.028467
H    -8.857038     1.198175    -4.954632
H     6.948363    -1.060770    -8.403956
O     6.368584    -1.782684    -8.670014
H     6.140622    -2.234989    -7.839437
H    -1.676489     6.238559    -7.024222
O    -2.072666     5.411821    -6.752611
H    -1.825517     5.280018    -5.788867
H    -0.021658     3.281763     9.019517
O     0.176992     2.361838     9.272730
H    -0.621338     2.094787     9.777635
H     6.772101    -2.769145    -2.708145
O     6.242834    -3.515411    -2.369637
H     6.714204    -4.324511    -2.616516
H    -4.056562    -3.085655    -4.967915
O    -4.209315    -2.971384    -5.932585
H    -4.758777    -2.179868    -5.988454
H     1.961876     2.160772     8.463166
O     2.626268     2.276197     7.774129
H     3.051445     1.407471     7.658206
H    -6.900205    -5.272850    -1.502258
O    -7.865651    -5.377564    -1.672239
H    -7.971166    -5.005904    -2.576097
H    -3.848283     5.223844     5.690144
O    -3.816700     5.992979     5.100224
H    -2.883833     6.290265     5.196796
H    -7.878046     0.060915    -1.993507
O    -7.388624     0.786954    -2.403094
H    -7.614784     0.777636    -3.357209
H     5.839920     0.132576     0.412924
O     5.614494     0.852123     1.034849
H     6.124105     0.657031     1.848248
H    -6.234706     3.269726     7.380592
O    -6.106656     2.749986     8.208287
H    -6.705106     1.987624     8.118036
H     2.304312    -8.078500    -0.863653
O     2.982020    -8.062104    -1.559046
H     2.760692    -8.776018    -2.173733
H    -2.719168    -3.968545    -6.220306
O    -1.965198    -4.533863    -5.987459
H    -1.690742    -4.242845    -5.089635
H    -5.660191     3.725645     5.295693
O    -6.312105     4.118682     5.912013
H    -6.150662     5.063145     5.901724
H    -0.990907    -7.122906    -3.187719
O    -0.521384    -6.452178    -2.658014
H     0.386719    -6.380434    -3.037406
H     4.432950     2.006817     5.131113
O     3.490757     2.243646     5.009727
H     3.105074     2.257423     5.891062
H     4.088870     4.644369     6.307845
O     4.168766     5.375891     5.691276
H     3.603221     5.135347     4.918941
H     2.751608     3.605673     3.925093
O     2.571314     4.545485     3.760495
H     2.453726     4.645652     2.794033
H     9.398496     0.225678    -1.063145
O     8.590918     0.385474    -0.571112
H     8.416505    -0.434650    -0.079632
H    -2.131900     5.283957     10.647143
O    -2.852749     4.653048     10.875785
H    -3.073341     4.827999     11.790884
H     7.983805    -3.001210     0.326709
O     8.401980    -2.153789     0.584186
H     8.334615    -2.150962     1.546399
H     5.357890     3.660821     3.532195
O     6.012128     3.926584     4.200174
H     5.596850     4.642760     4.702421
H    -4.237278     4.982604     9.776666
O    -4.869291     5.132646     9.053465
H    -5.479334     4.382595     9.049149
H    -6.992259    -3.504381    -3.511699
O    -7.610952    -4.116198    -3.960937
H    -7.089453    -4.555657    -4.663337
H    -0.005702     6.097850     10.772875
O    -0.870800     6.427018     10.524428
H    -0.754492     6.859821     9.659324
H     2.596427     1.498280    -4.107688
O     3.473295     1.853068    -3.866706
H     3.793810     1.337550    -3.096622
H    -6.982835    -0.261403     7.196482
O    -7.493292     0.515697     7.476465
H    -8.116305     0.698699     6.772160
H    -2.720270    -9.887914    -0.860799
O    -2.658951    -8.946864    -1.026302
H    -3.560367    -8.582443    -0.790252
H    -10.064067     3.047938    -4.922075
O    -10.178826     2.129852    -4.642456
H    -10.396979     2.212228    -3.693163
H    -2.066354    -3.047043     4.596547
O    -2.941892    -3.487282     4.661494
H    -2.926724    -4.108619     3.908337
H    -0.159459    -7.999974     2.460703
O     0.665520    -7.785821     2.909347
H     1.385781    -8.080555     2.324307
H     6.703701    -2.381779     6.390890
O     7.155621    -3.089462     5.926588
H     6.527786    -3.825991     5.885974
H    -5.276813    -2.041829     6.919889
O    -5.953077    -1.545214     6.433990
H    -5.935547    -1.922086     5.526054
H     0.844875     3.036706    -7.117512
O     1.763324     2.708099    -7.172230
H     1.752736     1.961849    -7.799677
H    -3.986710     8.723693     6.671626
O    -3.983134     8.722919     5.714264
H    -4.105555     7.795519     5.444915
H    -2.077914     10.302799    -2.732121
O    -2.979567     10.482224    -3.035207
H    -2.908489     11.117887    -3.746658
H     9.417143    -4.056191     4.044328
O     9.137737    -4.736121     4.665084
H     8.706021    -4.266128     5.389438
H    -0.704928    -5.999464    -5.863545
O    -0.000994    -6.564641    -5.528820
H     0.833955    -6.101232    -5.744625
H     1.806364     8.267676     0.673015
O     1.503587     8.589974    -0.204566
H     2.319077     8.631302    -0.733581
H     3.506407     2.939806    -6.660520
O     4.334017     2.651004    -6.250296
H     4.088007     2.375000    -5.342369
H     3.720523     7.125575    -1.219965
O     3.924036     8.062187    -1.431476
H     4.295114     8.008619    -2.324194
H     4.413011     0.007073    -7.913898
O     4.787824     0.152727    -7.043390
H     4.603588     1.083843    -6.798699
H     6.029990     1.937948    -0.470767
O     6.595920     2.133919    -1.231344
H     7.421501     1.656131    -1.036951
H     6.712366    -8.422797    -1.620328
O     7.348907    -8.209037    -2.355434
H     7.718640    -9.041738    -2.643947
H    -5.271240    -5.802798    -5.440879
O    -5.891590    -5.131530    -5.750091
H    -5.343552    -4.361185    -5.986815
H     0.653204     7.150673     7.605734
O    -0.249087     7.174874     7.963603
H    -0.803153     7.189959     7.145209
H    -8.879476    -2.862271    -4.132930
O    -9.400590    -2.054097    -3.963723
H    -9.117382    -1.388319    -4.594171
H    -2.390087    -6.002027    -2.166706
O    -3.265797    -5.712623    -2.439989
H    -3.450064    -6.089139    -3.325710
H    -2.959133    -5.909080    -5.434943
O    -3.557686    -6.521909    -4.964450
H    -3.072159    -7.340538    -4.799538
H    -1.384177     3.725004    -6.988588
O    -0.842857     2.970016    -6.717620
H    -1.076331     2.185390    -7.269781
H    -0.186870     0.421141    -8.225740
O    -1.083932     0.653643    -7.943229
H    -1.259185     0.127901    -7.146810
H    -10.425584     4.020605    -2.756033
O    -10.491197     3.240825    -2.189157
H    -9.662638     3.216754    -1.679071
H     4.569929     4.078017     1.726317
O     4.363265     3.155877     2.002363
H     5.081397     2.582479     1.721700
H     6.493051     1.411296    -4.215352
O     6.190103     0.785226    -3.523040
H     6.218571     1.279210    -2.678294
H     9.643809    -2.211079    -0.926153
O     9.921410    -1.994086    -1.825003
H     9.120928    -1.656849    -2.269277
H     9.986927    -3.301063    -3.096779
O     9.722568    -3.952563    -3.773265
H     9.329021    -3.444699    -4.493423
H    -7.733840    -7.380243     0.471656
O    -7.504022    -7.844913    -0.353721
H    -7.751592    -7.195890    -1.034212
H     4.155110     6.087652    -3.812375
O     4.814088     6.790522    -3.724655
H     5.651351     6.338637    -3.586819
H     0.131636    -8.171937    -5.240159
O     0.157236    -9.154828    -5.109486
H     0.310484    -9.517282    -5.982131
H    -2.303206    -8.685506    -2.745816
O    -2.067820    -8.418627    -3.654173
H    -1.419671    -9.035511    -4.013179
H     2.221060    -10.815572    -3.520348
O     2.172803    -9.861133    -3.495325
H     1.387375    -9.591807    -4.022168
H     6.838718     3.345523    -4.566312
O     6.899759     2.668567    -5.268096
H     6.107037     2.800704    -5.810130
H    -3.566498    -3.755639     7.698465
O    -3.682514    -2.967967     7.168546
H    -3.426697    -3.205247     6.251174
H    -0.613636    -3.362658    -6.741896
O     0.014585    -2.629532    -6.746527
H    -0.469875    -1.855846    -6.404861
H     0.628039     0.435993     8.744892
O     0.638234    -0.277254     8.102626
H    -0.282986    -0.568652     8.013396
H    -5.842054     7.350797    -4.258706
O    -6.342324     6.731401    -4.821540
H    -6.628737     5.999127    -4.231980
H    -4.293380     9.087904    -3.264631
O    -4.826967     8.290032    -3.160587
H    -4.418568     7.810564    -2.421697
H    -9.715267     5.770082    -4.662538
O    -10.246788     4.963723    -4.501219
H    -11.127154     5.162792    -4.821873
H     2.743776     6.501128     6.147194
O     1.783225     6.594832     6.243424
H     1.442334     5.680792     6.138855
H     4.784421     8.549015     0.098182
O     5.099881     8.548930     1.019778
H     5.509273     7.685662     1.149784
H     4.173209    -7.418524    -4.358855
O     3.416405    -7.703849    -4.902654
H     3.138025    -8.546575    -4.529053
H     0.350164     8.642642     4.240838
O     1.029620     7.999898     4.012608
H     1.256331     7.506496     4.826870
H     5.233287     4.199810    -3.150704
O     6.194700     4.172287    -3.096290
H     6.403941     3.590043    -2.349179
H    -2.584668    -1.575947     7.556343
O    -2.076992    -0.781350     7.777161
H    -2.704316    -0.157759     8.153202
H    -9.037735     7.911547    -4.158474
O    -8.971809     7.327478    -4.915414
H    -8.014095     7.166852    -5.049835
H     3.554185    -8.984298     1.070825
O     2.875856    -8.353995     1.318920
H     3.348458    -7.548458     1.601474
H     3.562869     8.167401     1.840491
O     2.773623     7.601591     1.950526
H     2.325465     7.834776     2.776319
N    -8.181226    -6.138452     1.937710
H    -7.526901    -5.447748     2.117878
H    -8.917487    -5.632779     1.570887
