45

H    -0.098971    -1.245400     3.085023
O     0.378493    -0.552027     2.599766
H    -0.083904     0.271079     2.841717
H    -0.288369    -3.545215     3.715305
O    -0.667497    -2.743684     4.113438
H    -0.414490    -2.800294     5.064091
H     1.997817    -1.759459     2.968112
O     2.092469    -2.717043     2.837543
H     1.479450    -2.906765     2.096670
H    -2.475476     0.291037     3.336399
O    -2.730931    -0.530847     3.816633
H    -1.972716    -0.589299     4.435657
H    -0.891539     0.652970     6.025830
O    -0.613858     0.106186     5.264228
H     0.178542    -0.401894     5.570866
H     0.675453    -5.090717     1.932023
O     0.166551    -5.151616     2.766589
H     0.267694    -6.086691     3.022884
H     1.938025    -3.579689     4.446220
O     2.051840    -4.058991     5.293991
H     2.736898    -3.525602     5.759360
H     4.564100    -2.308789     5.620840
O     4.253480    -2.813680     6.412543
H     4.622241    -3.706680     6.265723
H     2.366632    -5.672293     4.884569
O     2.759142    -6.538985     4.614735
H     2.033337    -7.123375     4.372948
H     2.122651    -0.667769     5.257380
O     1.599431    -1.106407     5.955871
H     1.744550    -0.604403     6.772662
H    -2.274000    -3.146933     4.435457
O    -3.131958    -3.596361     4.640495
H    -3.176875    -4.253779     3.923707
H    -3.586504    -3.529467     7.830632
O    -3.675871    -2.847152     7.164323
H    -3.484300    -3.282109     6.298575
H     0.614167     0.561302     8.971578
O     0.561272    -0.229372     8.421714
H    -0.399515    -0.365648     8.300500
H    -2.638001    -1.420287     7.585350
O    -2.157478    -0.619411     7.878030
H    -2.829675    -0.043574     8.260999
N    -0.205933    -3.341230     6.734262
H     0.656512    -3.675494     6.411512
H     0.043667    -2.562726     7.244030
