30
Coordinates from ORCA-job grain_mol_opt.QMRegion
  H   -2.37949184898194     -3.61532081447479      1.91820637964467
  O   -2.40054628114057     -4.55847804466820      2.16921857354439
  H   -1.46993905692713     -4.77993733926038      2.38091567883077
  H   -2.13257235393060     -8.12866860881394      0.38430138950880
  O   -1.78244389864995     -7.68756538629727      1.19091487171805
  H   -2.55507853515900     -7.38022237982082      1.67063914692454
  H   -5.36207075577175     -5.05152595114742      1.75442865606204
  O   -4.69611332577861     -5.75527474010244      1.51017865820859
  H   -3.83174569496259     -5.28446903866106      1.57392897639396
  H   -4.43634382883023     -2.54855739681084      4.14872494109552
  O   -5.34869342908957     -2.23272572291541      3.96792161851212
  H   -5.21882201319920     -1.43833766259645      3.40141582037593
  H   -5.86566667294913     -3.15656816939749      1.23142521370832
  O   -6.33030837289015     -3.72417052677810      1.90035408493072
  H   -6.13581185238722     -3.25323882550436      2.73751525666131
  H   -5.69107716711001     -8.10507454034394     -0.77427837903538
  O   -5.01444204774811     -8.18067961411852     -0.06215771741506
  H   -4.98556469329401     -7.30801209211652      0.36409953096132
  H   -2.08755429063615     -3.10970567541990      4.58091819888167
  O   -2.98487381245213     -3.37924262836423      4.88001708326666
  H   -3.13896603679588     -4.27513131430308      4.52725997314128
  H   -5.33606631682110     -1.98091550078410      6.97997580807530
  O   -6.00692109038287     -1.49244269269857      6.47769226704475
  H   -5.94970385593663     -1.83996935423806      5.56357575328274
  H   -3.38558645072352     -3.54829140409771      7.98644163112224
  O   -3.69300485465696     -2.88790551162667      7.36203484338097
  H   -3.34394202385786     -3.15661224415178      6.47177341430694
  O   -4.16986460164132     -5.96960766371152      4.36380205545862
  H   -5.00644411291260     -5.93662755898762      4.83684885704846
  H   -4.42121289704792     -6.02650924075467      3.42332189337697
