603

H     0.182544     3.005960    -0.686227
O     0.707247     2.337432    -1.177284
H     1.646097     2.471883    -0.907057
H    -0.063984    -1.314501     3.165233
O     0.324032    -0.615391     2.616672
H    -0.156899     0.197185     2.846668
H    -2.413603     2.374897    -0.532880
O    -2.197627     1.908703     0.292344
H    -2.212436     0.959809     0.071411
H    -4.661554     0.514984     2.200121
O    -4.972972    -0.420227     2.220321
H    -4.470248    -0.897913     1.552381
H     0.065690    -0.326307     0.960687
O    -0.134514    -0.095813     0.032919
H     0.198694     0.802413    -0.092845
H    -0.130141    -3.582175     3.803580
O    -0.411651    -2.751429     4.220931
H     0.235784    -2.574294     4.919876
H    -4.896496     2.492988     1.339200
O    -4.253292     2.089394     1.954395
H    -3.412303     2.072808     1.438752
H    -3.274878     3.850273    -2.213579
O    -2.533053     3.258755    -1.981323
H    -2.176381     2.967810    -2.840712
H    -0.109880    -3.825382     0.529475
O     0.227849    -3.004876     0.942942
H    -0.560711    -2.519827     1.254162
H    -2.366823    -1.559544     2.490922
O    -2.177792    -2.028987     1.651952
H    -2.441389    -1.446750     0.920174
H     2.073003    -1.462430    -1.112423
O     2.308810    -1.710553    -0.194668
H     1.522252    -2.138914     0.193707
H    -1.397190     1.804452     1.914293
O    -1.483022     1.410808     2.792820
H    -1.470393     2.126665     3.453976
H     0.213116    -2.732640    -1.549635
O    -0.545836    -2.125387    -1.605248
H    -0.368085    -1.394259    -0.976299
H    -3.428566    -2.964843    -0.360065
O    -2.709901    -3.456409    -0.779391
H    -2.003736    -2.823263    -1.003631
H     2.777253     0.131774     2.932630
O     2.880337    -0.045776     3.894880
H     2.968528     0.849493     4.294966
H    -3.561530     6.339405    -0.556724
O    -3.327307     7.000257    -1.260010
H    -3.188649     7.847879    -0.793616
H     3.899649     0.583391     1.179237
O     2.950384     0.397739     1.299198
H     2.714581    -0.358046     0.723662
H    -5.793814     0.788939    -1.591334
O    -4.883581     1.116670    -1.459440
H    -4.998105     1.947510    -0.953121
H    -1.232042     5.379673     2.195291
O    -1.853737     4.629072     2.084080
H    -1.927646     4.214334     2.948784
H     3.479502     2.756977     0.409531
O     3.229568     2.708919    -0.528791
H     3.564290     1.865945    -0.876231
H     1.502488    -4.724198    -2.225313
O     1.565214    -3.944245    -1.655743
H     2.356586    -3.480858    -2.011195
H    -0.933535    -0.123175    -2.538931
O    -0.299984     0.528218    -2.866501
H    -0.041809     1.116303    -2.133430
H     1.716150    -4.701801    -0.154344
O     1.828089    -5.335102     0.590845
H     1.367215    -6.149478     0.300042
H    -1.223660    -3.306470    -2.854301
O    -1.049506    -3.993317    -3.511415
H    -0.917398    -4.836706    -3.037956
H    -2.784746     3.296473     4.703724
O    -1.803541     3.298145     4.667245
H    -1.506697     2.901442     5.504436
H     0.948629     5.035324     4.056348
O     0.001791     5.263856     4.110604
H    -0.466165     4.459796     4.373020
H    -1.714211    -4.681991    -0.336673
O    -0.946200    -5.219441    -0.052745
H    -1.289018    -5.903662     0.531342
H    -3.953147     5.780304    -2.608659
O    -4.300790     4.942477    -2.931799
H    -4.150966     4.902901    -3.900770
H    -2.412236    -3.712901     1.968082
O    -2.425513    -4.615787     2.347600
H    -1.484337    -4.848647     2.487272
H    -4.693072    -3.034363    -2.865067
O    -3.840478    -3.269915    -3.269295
H    -3.506263    -4.057791    -2.797773
H     0.343353     1.377782     4.614425
O     0.845747     2.138171     4.275951
H     0.893016     2.801004     4.979271
H    -4.639373    -5.221165    -1.523980
O    -5.342784    -4.870328    -0.950867
H    -5.123997    -5.216012    -0.064655
H     2.339654    -6.513980    -4.008142
O     2.003235    -6.183078    -3.155230
H     2.442574    -6.751279    -2.490403
H     0.466580    -3.418722    -3.983537
O     1.266706    -3.051415    -4.411093
H     0.943010    -2.684152    -5.259918
H     1.977115    -1.753079     2.991727
O     2.135763    -2.684380     2.778498
H     1.448827    -2.903939     2.114507
H    -3.020871    -1.856508    -3.186091
O    -2.602644    -0.968501    -3.126776
H    -3.264059    -0.330406    -3.449968
H    -3.212245     4.944255     1.072334
O    -3.996469     5.312645     0.618310
H    -4.412602     5.871499     1.322819
H     0.870367     2.246847     2.584955
O     0.968655     2.238091     1.613534
H     1.697715     1.617217     1.450079
H     0.159854     5.630987    -0.778864
O     0.677704     6.292756    -1.291866
H     0.817114     7.095848    -0.740364
H     0.316928     7.027051     2.563456
O    -0.045971     6.641210     1.748988
H     0.619951     5.972087     1.488679
H    -2.474798     0.197699     3.354371
O    -2.691165    -0.614868     3.864100
H    -1.928531    -0.647698     4.483555
H    -0.881964     0.556228     6.032478
O    -0.608006     0.034077     5.259847
H     0.109003    -0.564809     5.547220
H     0.734106    -5.004294     2.009238
O     0.194615    -5.112750     2.815707
H     0.344464    -6.031251     3.091953
H    -2.085633    -8.117646     0.500250
O    -1.762956    -7.625449     1.282522
H    -2.548932    -7.314426     1.739280
H    -0.419733     6.828213    -2.349697
O    -1.169253     7.243204    -2.848241
H    -1.957253     7.115358    -2.282028
H    -1.134096     4.284759     0.563481
O    -0.763843     4.343292    -0.333832
H    -1.471346     4.095048    -0.963140
H    -4.414553     2.722548     3.513811
O    -4.410853     2.897444     4.477731
H    -4.489193     2.015974     4.891078
H     2.048700    -3.576106     4.262418
O     1.990019    -4.044962     5.117908
H     2.496082    -3.502756     5.744621
H     4.700572    -3.193657     0.847433
O     4.536945    -3.123538    -0.118939
H     3.675749    -2.650135    -0.202075
H    -2.727712    -0.788156    -1.334076
O    -3.052967    -0.516880    -0.459143
H    -3.856655     0.004792    -0.666195
H    -1.633446    -0.810991    -4.616991
O    -1.125497    -0.600241    -5.421923
H    -0.419506     0.002625    -5.141246
H     1.788829    -1.745922    -3.367126
O     1.879933    -0.996157    -2.747576
H     1.099280    -0.423024    -2.878483
H     3.680607    -3.117258     2.561674
O     4.640408    -3.342669     2.486697
H     4.699594    -4.301897     2.618034
H     3.458382    -6.114873     3.149236
O     3.810387    -5.917346     2.246844
H     3.069955    -5.576811     1.704693
H    -3.363773     1.562287    -4.165481
O    -4.208729     1.095729    -3.970404
H    -4.422053     1.235362    -3.012871
H    -5.105523     4.102957     0.067927
O    -5.540253     3.234272    -0.026574
H    -6.471415     3.346452    -0.310473
H     6.731476    -1.183372    -1.370304
O     5.960454    -1.034476    -0.816609
H     5.545548    -1.902967    -0.613910
H     4.596377    -3.184276    -2.461957
O     3.726540    -3.018876    -2.876109
H     3.730316    -3.640990    -3.629447
H     4.458009    -2.270895     5.626292
O     4.119815    -2.734219     6.422781
H     4.458301    -3.638193     6.344168
H    -0.769856     6.336025     5.054359
O    -1.367209     6.911959     5.591650
H    -1.386081     7.786703     5.145749
H     4.690978    -0.146840    -1.472658
O     3.920645     0.391079    -1.735808
H     3.229528    -0.213785    -2.060946
H    -0.777748     4.478179    -4.049194
O    -1.562767     5.017300    -4.258227
H    -1.414447     5.886354    -3.839845
H     0.634077     3.171152    -2.668047
O     0.638455     3.543812    -3.578202
H     0.685460     2.777771    -4.160332
H    -5.359213    -5.230121     1.842352
O    -4.661360    -5.824493     1.488191
H    -3.821746    -5.403384     1.753830
H     7.872550    -1.699507    -4.042618
O     7.616276    -1.383157    -3.143650
H     7.125238    -0.542084    -3.302591
H     3.702841    -5.105083    -5.270018
O     4.465458    -4.726372    -4.793364
H     4.854434    -5.433028    -4.245149
H    -3.773272     0.003152     4.952940
O    -4.373634     0.467489     5.585820
H    -5.030524    -0.191755     5.882248
H     3.484552    -5.953142    -0.494514
O     4.355120    -5.703916    -0.816618
H     4.427831    -4.740568    -0.677607
H     4.985341    -0.357717    -4.167071
O     4.452447    -1.073648    -4.551899
H     4.130527    -1.654425    -3.830131
H    -1.192435     1.525385    -3.934148
O    -1.844350     2.144328    -4.319207
H    -1.493146     2.471273    -5.169763
H     4.900926    -6.335612    -2.292743
O     5.232252    -6.663766    -3.157813
H     6.053123    -7.139840    -2.971389
H     8.749212    -5.092255    -2.913720
O     8.061461    -5.510281    -2.351225
H     8.099827    -6.467919    -2.448799
H     2.315236     4.708730     0.428778
O     1.739046     4.691956     1.202258
H     1.385288     3.770690     1.285139
H    -4.395327    -2.655234     4.264606
O    -5.291435    -2.320798     4.063434
H    -5.159589    -1.541909     3.483416
H    -5.832384    -3.237071     1.357100
O    -6.290043    -3.793463     2.030121
H    -6.101177    -3.352294     2.877646
H     1.688437     3.486091     6.847723
O     1.061625     3.996313     6.313325
H     0.279727     4.148871     6.886511
H     5.017034    -2.153547     3.618236
O     5.036600    -1.432081     4.278860
H     4.221878    -0.879890     4.122012
H     2.425411    -5.565921     4.864944
O     2.808226    -6.449611     4.608188
H     2.064999    -7.034952     4.439299
H     2.251612    -4.562626    -6.768170
O     2.086815    -5.047782    -5.949724
H     1.821115    -4.354255    -5.296938
H     6.451508    -4.101655    -0.496183
O     7.207861    -4.499358    -0.033390
H     7.714801    -4.923233    -0.753734
H    -1.724977     4.496989     7.691730
O    -0.825431     4.600981     8.074058
H    -0.648621     5.561044     8.092865
H    -5.164357     5.621710    -5.601191
O    -4.551713     4.862301    -5.618179
H    -3.798476     5.076950    -6.189040
H     3.262132    -2.577695    -8.427541
O     3.179490    -3.107410    -7.623743
H     4.057116    -3.076588    -7.197399
H    -0.709573     8.789901    -2.311917
O    -0.587957     9.621838    -1.798062
H     0.176621     9.453307    -1.222673
H     2.081968    -0.901268     5.216582
O     1.513736    -1.427097     5.808505
H     1.608557    -1.076616     6.703611
H     5.192673    -2.053014    -5.692213
O     5.540542    -2.820367    -6.211643
H     5.271689    -3.608890    -5.689383
H     5.727538    -5.191138     4.700689
O     5.207752    -5.104605     5.528746
H     4.488512    -5.739863     5.448426
H    -3.961854     1.140688     7.020736
O    -3.769289     1.621270     7.861812
H    -4.646220     2.004555     8.123260
H    -1.899054     9.580496    -0.779725
O    -2.757132     9.453378    -0.301276
H    -3.372738     10.076046    -0.691547
H    -5.982291     4.624933    -2.937415
O    -6.890927     4.502165    -3.279473
H    -6.800973     3.794281    -3.951755
H     0.116761    -7.092448    -1.101772
O     0.585217    -7.523359    -0.353896
H    -0.090812    -7.717165     0.298542
H    -7.664395     3.725500    -1.962932
O    -7.918796     3.141012    -1.218610
H    -7.774518     2.231250    -1.557025
H     3.994404    -0.864515     6.985390
O     3.999023     0.099611     6.972000
H     4.808468     0.390976     6.536030
H     2.225335     5.777092    -1.207631
O     3.162697     5.489222    -1.095129
H     3.338910     4.945829    -1.886201
H     6.573462    -5.921824     0.687583
O     6.209719    -6.657299     1.225833
H     5.304771    -6.382910     1.454359
H    -3.869384     4.728230     7.776597
O    -3.302510     4.264532     7.118506
H    -3.491887     3.320892     7.233811
H     5.792532    -7.943630     0.165868
O     5.505716    -8.635243    -0.467322
H     4.673945    -8.315141    -0.860524
H    -0.547126     2.054440     7.692209
O    -1.182348     1.983408     6.959497
H    -2.049038     1.840200     7.359383
H    -6.385610    -0.165458     1.091394
O    -6.704730    -0.259045     0.179411
H    -7.623723    -0.528769     0.197882
H    -5.366152    -3.109104    -0.551763
O    -5.114191    -2.407209     0.074162
H    -5.686609    -1.635775    -0.114499
H     4.289922     5.574776     0.286500
O     4.626505     5.681425     1.190061
H     3.931151     6.190755     1.642119
H    -9.040431    -1.806025    -2.219701
O    -8.503070    -1.607144    -1.425023
H    -8.625123    -2.344700    -0.788812
H    -5.564589     3.393664    -5.519870
O    -6.077928     2.682592    -5.101747
H    -5.406644     2.107300    -4.682078
H     3.162058    -0.925800    -5.653470
O     2.305355    -1.052014    -6.116115
H     2.392920    -1.902980    -6.585437
H     8.096664    -1.368054    -6.040704
O     8.110200    -2.229843    -5.580179
H     7.254821    -2.634576    -5.825880
H     7.592039     0.968756    -6.331458
O     7.405600     0.117624    -6.740013
H     6.424322     0.063304    -6.772894
H    -7.846526    -3.742219     0.982014
O    -8.528412    -3.644517     0.299653
H    -8.427127    -4.407538    -0.296427
H    -2.445720     8.710282     1.264720
O    -2.289505     8.126528     2.020402
H    -1.518065     7.575307     1.797418
H    -4.465248     6.411532     3.486270
O    -4.640211     6.832876     2.628493
H    -3.879605     7.421038     2.483179
H     3.370439     3.420349    -3.597714
O     3.213403     4.389399    -3.508650
H     2.247780     4.449134    -3.613387
H    -6.082987    -1.548136    -3.389036
O    -6.228718    -2.208871    -2.683957
H    -6.989702    -1.897374    -2.145076
H     6.473348     1.077957     4.721082
O     6.079493     1.618369     5.422843
H     6.261975     2.536490     5.126418
H     1.331361     1.676696    -5.828102
O     1.142428     1.083946    -5.070024
H     1.507712     0.220822    -5.336859
H    -2.474122     2.982432     10.484141
O    -2.259000     2.074294     10.214923
H    -2.857898     1.868526     9.485198
H     7.634429    -0.473343     3.069126
O     6.882501     0.099984     3.237387
H     6.193896    -0.501246     3.622035
H    -5.631299    -8.103362    -0.637283
O    -4.895219    -8.166302     0.008041
H    -4.900160    -7.346413     0.526143
H    -5.102937    -0.039968    -4.793678
O    -5.535399    -0.880511    -5.029743
H    -6.380871    -0.661133    -5.445007
H     1.862252    -0.250400    -7.512609
O     1.656572     0.216089    -8.358445
H     2.233010    -0.190203    -9.011044
H     4.844249    -1.441830    -9.305010
O     3.917208    -1.218634    -9.585543
H     3.894767    -1.340521    -10.534007
H     7.582907    -2.540691     4.196053
O     7.727313    -2.581245     3.236380
H     7.236109    -3.375272     2.969972
H     6.749483    -5.876051     2.699931
O     6.810384    -5.197183     3.397554
H     7.687973    -5.276217     3.813001
H    -1.853033     8.934804     3.465569
O    -1.603998     9.245083     4.361710
H    -2.452047     9.376125     4.818970
H    -7.391783     1.610954    -5.174755
O    -7.962097     0.865471    -4.914836
H    -8.867048     1.263345    -4.882499
H     6.899322    -1.118199    -8.413359
O     6.320068    -1.843365    -8.671647
H     6.096466    -2.289761    -7.836656
H    -1.729107     6.177758    -7.040240
O    -2.121594     5.351253    -6.762748
H    -1.871505     5.226065    -5.798817
H     0.009825     3.333616     9.014018
O     0.211720     2.416092     9.273461
H    -0.584047     2.151069     9.783478
H     6.754532    -2.787306    -2.705120
O     6.228504    -3.532248    -2.358753
H     6.699837    -4.342167    -2.602690
H    -4.041090    -3.174811    -4.876862
O    -4.162722    -3.114745    -5.854209
H    -4.545365    -2.227900    -5.957076
H     1.992208     2.212034     8.455552
O     2.653507     2.323840     7.762941
H     3.079008     1.454829     7.650467
H    -6.894586    -5.263824    -1.329491
O    -7.809448    -5.541581    -1.571416
H    -7.946640    -5.140472    -2.454214
H    -3.836868     5.246256     5.690399
O    -3.809273     6.012092     5.096037
H    -2.876243     6.310759     5.185414
H    -7.930933     0.057631    -1.894115
O    -7.397392     0.754934    -2.296673
H    -7.608756     0.784541    -3.260448
H     5.833248     0.134281     0.400383
O     5.610311     0.858077     1.018192
H     6.123814     0.669294     1.830544
H    -6.210875     3.300183     7.406857
O    -6.078444     2.786607     8.237756
H    -6.675713     2.022323     8.154963
H     2.305045    -8.090553    -0.801593
O     2.979567    -8.078693    -1.500246
H     2.755662    -8.796848    -2.108877
H    -2.742419    -4.023120    -6.163848
O    -1.992609    -4.594011    -5.927578
H    -1.714222    -4.293339    -5.034061
H    -5.648259     3.742262     5.315640
O    -6.296545     4.139106     5.933572
H    -6.137731     5.083853     5.913950
H    -1.003006    -7.156314    -3.118162
O    -0.532266    -6.482719    -2.593659
H     0.374094    -6.410905    -2.977024
H     4.446997     2.038855     5.112633
O     3.504020     2.273538     4.994270
H     3.122324     2.292734     5.877215
H     4.104178     4.684019     6.272472
O     4.180343     5.411315     5.650448
H     3.611168     5.164613     4.882584
H     2.756546     3.626717     3.903703
O     2.574785     4.565269     3.733672
H     2.451449     4.658411     2.767133
H     9.384307     0.222540    -1.094250
O     8.579250     0.384751    -0.598922
H     8.408166    -0.432254    -0.101142
H    -2.095189     5.344030     10.638320
O    -2.813618     4.713488     10.875372
H    -3.029978     4.894825     11.790210
H     7.981704    -2.996627     0.325141
O     8.400374    -2.147076     0.574595
H     8.337242    -2.137297     1.537053
H     5.361300     3.683085     3.497470
O     6.018466     3.954611     4.160386
H     5.604148     4.673360     4.659784
H    -4.204869     5.032504     9.780748
O    -4.841041     5.177245     9.060193
H    -5.449510     4.425864     9.063187
H    -6.955143    -3.529684    -3.521040
O    -7.518841    -4.210543    -3.966073
H    -6.893195    -4.742653    -4.515839
H     0.030137     6.161919     10.747590
O    -0.836609     6.488670     10.501712
H    -0.725577     6.914932     9.632617
H     2.564868     1.464167    -4.113346
O     3.442974     1.821108    -3.879513
H     3.767229     1.311775    -3.106953
H    -6.954008    -0.232564     7.250499
O    -7.465292     0.544883     7.528883
H    -8.090913     0.722723     6.825505
H    -2.707964    -9.910951    -0.763351
O    -2.650127    -8.970050    -0.929429
H    -3.556315    -8.606150    -0.686952
H    -10.099961     2.987939    -4.873798
O    -10.215267     2.071192    -4.591309
H    -10.427229     2.155630    -3.641608
H    -2.045399    -3.031250     4.643767
O    -2.917966    -3.475152     4.718774
H    -2.911939    -4.096209     3.965219
H    -0.141496    -7.992502     2.534179
O     0.685425    -7.776761     2.978517
H     1.403105    -8.072252     2.390768
H     6.731232    -2.337056     6.390691
O     7.182130    -3.047606     5.929745
H     6.554878    -3.785035     5.897114
H    -5.246900    -2.011326     6.978438
O    -5.927230    -1.518995     6.494309
H    -5.911807    -1.900067     5.586754
H     0.795721     2.978094    -7.124427
O     1.714827     2.651189    -7.182366
H     1.701712     1.900337    -7.804097
H    -3.976163     8.752215     6.648907
O    -3.977185     8.745550     5.691563
H    -4.099295     7.816217     5.428576
H    -2.116840     10.269596    -2.775129
O    -3.020318     10.446598    -3.074176
H    -2.953745     11.075947    -3.791646
H     9.435283    -4.023440     4.042589
O     9.160686    -4.699555     4.669640
H     8.731273    -4.225292     5.392603
H    -0.732767    -6.051663    -5.799258
O    -0.025802    -6.614348    -5.466346
H     0.806931    -6.149822    -5.688353
H     1.787529     8.264409     0.624391
O     1.480188     8.580897    -0.253641
H     2.292814     8.619153    -0.787182
H     3.459565     2.888306    -6.680565
O     4.289856     2.603631    -6.272699
H     4.048707     2.333907    -5.361498
H     3.693974     7.112384    -1.270310
O     3.895662     8.047807    -1.489169
H     4.261796     7.988526    -2.383545
H     4.364477    -0.050940    -7.917926
O     4.744408     0.101208    -7.050762
H     4.559209     1.033524    -6.810996
H     6.015682     1.934001    -0.497133
O     6.577898     2.125426    -1.261645
H     7.405028     1.650233    -1.067726
H     6.709436    -8.433504    -1.577763
O     7.342107    -8.224165    -2.317555
H     7.711604    -9.058366    -2.601939
H    -5.156442    -5.926235    -5.453748
O    -5.830573    -5.301749    -5.769844
H    -5.305552    -4.495741    -5.969897
H     0.671237     7.193640     7.570284
O    -0.229223     7.219362     7.932645
H    -0.787395     7.227426     7.116804
H    -9.057090    -3.027402    -3.960058
O    -9.606808    -2.251589    -3.749831
H    -9.331380    -1.598990    -4.403628
H    -2.395593    -6.030905    -2.098467
O    -3.277144    -5.752567    -2.364459
H    -3.465303    -6.129420    -3.248593
H    -2.987893    -5.956630    -5.361654
O    -3.592430    -6.565610    -4.893417
H    -3.104950    -7.380877    -4.717232
H    -1.433472     3.663868    -6.989083
O    -0.888085     2.911914    -6.717712
H    -1.125427     2.122785    -7.261613
H    -0.237524     0.352546    -8.208915
O    -1.133595     0.585738    -7.924267
H    -1.305116     0.065844    -7.123024
H    -10.453173     3.972768    -2.714135
O    -10.518213     3.201689    -2.135493
H    -9.683857     3.178234    -1.634922
H     4.563310     4.086728     1.692812
O     4.360352     3.166330     1.977191
H     5.077397     2.592051     1.695627
H     6.461073     1.381926    -4.239817
O     6.163310     0.759905    -3.541682
H     6.194338     1.259959    -2.700577
H     9.634140    -2.212519    -0.941587
O     9.906944    -2.001788    -1.843409
H     9.103729    -1.668524    -2.285876
H     9.968055    -3.317087    -3.106158
O     9.701823    -3.973662    -3.777038
H     9.303443    -3.471351    -4.498455
H    -7.670357    -8.638359    -1.582968
O    -6.937690    -8.041637    -1.729380
H    -7.318692    -7.129602    -1.712886
H     4.117329     6.057384    -3.857332
O     4.775907     6.761757    -3.778571
H     5.614350     6.311945    -3.641169
H     0.110192    -8.217971    -5.166377
O     0.137602    -9.200252    -5.029460
H     0.288886    -9.567803    -5.900302
H    -2.310904    -8.716994    -2.658352
O    -2.084460    -8.457052    -3.570880
H    -1.434687    -9.073126    -3.928376
H     2.212336    -10.846830    -3.439636
O     2.162267    -9.892390    -3.420223
H     1.373932    -9.627506    -3.944996
H     6.801549     3.314105    -4.605936
O     6.860522     2.632639    -5.303580
H     6.064572     2.759471    -5.842203
H    -3.528451    -3.719235     7.759315
O    -3.648204    -2.934675     7.225681
H    -3.398842    -3.177079     6.307722
H    -0.650264    -3.420349    -6.697520
O    -0.023140    -2.686533    -6.710771
H    -0.506977    -1.911256    -6.371025
H     0.662773     0.487499     8.755745
O     0.671374    -0.231016     8.119347
H    -0.249995    -0.523907     8.035897
H    -5.885856     7.299550    -4.261206
O    -6.387595     6.676515    -4.818343
H    -6.668695     5.945341    -4.223973
H    -4.332911     9.047714    -3.287321
O    -4.865247     8.250189    -3.175215
H    -4.452386     7.775374    -2.435786
H    -9.755919     5.713099    -4.635094
O    -10.286402     4.908635    -4.462574
H    -11.167607     5.101690    -4.784324
H     2.755626     6.537334     6.105680
O     1.795509     6.630329     6.206628
H     1.455336     5.715127     6.109613
H     4.762274     8.546491     0.032624
O     5.083254     8.553670     0.952312
H     5.493620     7.691490     1.086453
H     4.154968    -7.452087    -4.310600
O     3.396447    -7.743341    -4.848890
H     3.121150    -8.583330    -4.466993
H     0.348506     8.661617     4.196616
O     1.028800     8.019224     3.969840
H     1.259625     7.531226     4.786165
H     5.202103     4.175892    -3.188414
O     6.163875     4.149986    -3.138773
H     6.377543     3.573457    -2.388491
H    -2.551946    -1.537681     7.597229
O    -2.044161    -0.741403     7.812022
H    -2.671514    -0.115600     8.184405
H    -9.079613     7.856596    -4.149123
O    -9.016328     7.270932    -4.905046
H    -8.059077     7.107646    -5.040752
H     3.567084    -8.980789     1.132471
O     2.888164    -8.350942     1.380043
H     3.359847    -7.541953     1.654558
H     3.550288     8.175312     1.783993
O     2.762872     7.608713     1.901836
H     2.317974     7.846919     2.727962
N    -7.761398    -2.270176    -6.235621
H    -7.644668    -3.092379    -5.731193
H    -7.966527    -2.546019    -7.132018
