603

H     0.207051     3.048138    -0.674752
O     0.727040     2.377856    -1.168348
H     1.666483     2.502863    -0.894895
H    -0.085926    -1.292058     3.151665
O     0.308187    -0.593087     2.607218
H    -0.165599     0.222292     2.841737
H    -2.394513     2.437807    -0.532512
O    -2.186768     1.965668     0.291335
H    -2.204740     1.018142     0.065492
H    -4.665918     0.580771     2.184513
O    -4.988517    -0.350911     2.194950
H    -4.482764    -0.830612     1.530688
H     0.057351    -0.292444     0.952707
O    -0.140222    -0.053955     0.026275
H     0.203784     0.841022    -0.093809
H    -0.173084    -3.562543     3.776692
O    -0.448965    -2.731757     4.197830
H     0.197992    -2.564129     4.899623
H    -4.881501     2.566111     1.334479
O    -4.244029     2.152727     1.948375
H    -3.401069     2.132631     1.435743
H    -3.239393     3.930565    -2.207291
O    -2.505175     3.329239    -1.976514
H    -2.146915     3.041764    -2.836402
H    -0.145692    -3.787667     0.501657
O     0.197361    -2.971733     0.919957
H    -0.587861    -2.482553     1.232647
H    -2.388673    -1.514002     2.470342
O    -2.202925    -1.980436     1.628880
H    -2.457608    -1.391143     0.899884
H     2.061142    -1.433563    -1.121394
O     2.291947    -1.688078    -0.204198
H     1.501240    -2.112956     0.179451
H    -1.388222     1.845948     1.915126
O    -1.483010     1.447553     2.790479
H    -1.464665     2.158905     3.456496
H     0.191820    -2.685548    -1.571062
O    -0.561646    -2.071083    -1.624625
H    -0.378910    -1.345779    -0.990374
H    -3.453464    -2.894084    -0.391245
O    -2.739154    -3.388821    -0.813650
H    -2.025880    -2.761196    -1.030934
H     2.767659     0.132405     2.934464
O     2.865951    -0.051599     3.895966
H     2.961142     0.840482     4.301589
H    -3.510298     6.412013    -0.535327
O    -3.269007     7.073729    -1.234864
H    -3.124080     7.918346    -0.764481
H     3.898378     0.584501     1.186946
O     2.947129     0.406267     1.302973
H     2.707017    -0.344588     0.722819
H    -5.784443     0.883953    -1.599355
O    -4.873092     1.208099    -1.475379
H    -4.979234     2.037024    -0.963580
H    -1.196336     5.417372     2.215872
O    -1.824251     4.672622     2.098933
H    -1.903058     4.253691     2.961227
H     3.498407     2.765892     0.428069
O     3.249640     2.724636    -0.510967
H     3.579285     1.881282    -0.862370
H     1.466499    -4.683937    -2.254004
O     1.533774    -3.907276    -1.680355
H     2.330377    -3.449058    -2.030923
H    -0.928238    -0.062004    -2.546407
O    -0.292217     0.588466    -2.870681
H    -0.028711     1.169238    -2.133539
H     1.674707    -4.675086    -0.182641
O     1.778967    -5.313102     0.559542
H     1.312664    -6.122322     0.262804
H    -1.245449    -3.241201    -2.881144
O    -1.076058    -3.924752    -3.542770
H    -0.952023    -4.772610    -3.074752
H    -2.772614     3.333139     4.709437
O    -1.791522     3.326017     4.674863
H    -1.499974     2.922659     5.510816
H     0.976411     5.044514     4.081165
O     0.031196     5.280101     4.133809
H    -0.443548     4.478486     4.391310
H    -1.755060    -4.626527    -0.374240
O    -0.992028    -5.170540    -0.090055
H    -1.341862    -5.856436     0.487981
H    -3.902384     5.867050    -2.591615
O    -4.256339     5.034459    -2.921895
H    -4.101943     5.000267    -3.890410
H    -2.450827    -3.664382     1.934620
O    -2.473031    -4.569012     2.309144
H    -1.534125    -4.810902     2.449577
H    -4.713510    -2.942490    -2.898490
O    -3.862876    -3.177726    -3.306348
H    -3.533733    -3.972842    -2.842121
H     0.339549     1.388626     4.617366
O     0.847968     2.147149     4.283815
H     0.900152     2.805215     4.991320
H    -4.682010    -5.132951    -1.573551
O    -5.382679    -4.777233    -0.999583
H    -5.170487    -5.133238    -0.115707
H     2.293765    -6.470558    -4.044666
O     1.957927    -6.141294    -3.190830
H     2.390464    -6.717252    -2.528157
H     0.446292    -3.360358    -4.007811
O     1.250302    -2.996149    -4.430659
H     0.932401    -2.622526    -5.278840
H     1.951880    -1.746230     2.980920
O     2.102961    -2.677615     2.762784
H     1.416187    -2.887767     2.095697
H    -3.028907    -1.777367    -3.209698
O    -2.603788    -0.892494    -3.143499
H    -3.256284    -0.243943    -3.463129
H    -3.177278     5.004245     1.086160
O    -3.958548     5.379952     0.632694
H    -4.370265     5.940059     1.339317
H     0.879350     2.265005     2.593864
O     0.979454     2.260357     1.622572
H     1.704425     1.635023     1.457622
H     0.206234     5.674208    -0.752145
O     0.730246     6.334244    -1.260725
H     0.875690     7.133238    -0.704576
H     0.364986     7.049640     2.597959
O     0.000934     6.670888     1.780612
H     0.662587     5.998378     1.518167
H    -2.484462     0.239534     3.342900
O    -2.709745    -0.574272     3.846766
H    -1.949231    -0.617339     4.468452
H    -0.896716     0.569206     6.026978
O    -0.625423     0.049088     5.251993
H     0.086211    -0.557081     5.537866
H     0.684234    -4.981752     1.976674
O     0.141257    -5.089976     2.780873
H     0.282872    -6.011245     3.052455
H    -2.156950    -8.063099     0.442513
O    -1.832500    -7.576902     1.227937
H    -2.617338    -7.263296     1.684823
H    -0.359461     6.884662    -2.318433
O    -1.104456     7.307684    -2.817070
H    -1.894680     7.184297    -2.253231
H    -1.102789     4.330829     0.579060
O    -0.730106     4.390804    -0.317202
H    -1.437943     4.152679    -0.949540
H    -4.403845     2.778865     3.511815
O    -4.402071     2.948322     4.476440
H    -4.488231     2.065278     4.884916
H     2.004726    -3.577111     4.241504
O     1.939118    -4.049919     5.094254
H     2.448749    -3.516014     5.725233
H     4.669030    -3.197268     0.835793
O     4.508468    -3.120165    -0.130582
H     3.651533    -2.639299    -0.213269
H    -2.732116    -0.719149    -1.350767
O    -3.058892    -0.449271    -0.476028
H    -3.856519     0.080764    -0.682153
H    -1.626885    -0.732988    -4.630381
O    -1.119958    -0.518360    -5.434504
H    -0.407531     0.075215    -5.149446
H     1.780766    -1.701905    -3.378385
O     1.875848    -0.956147    -2.754440
H     1.100982    -0.375654    -2.885090
H     3.644972    -3.122303     2.547692
O     4.603039    -3.354959     2.473911
H     4.654182    -4.315384     2.599985
H     3.396309    -6.121037     3.117660
O     3.752362    -5.920959     2.217425
H     3.016133    -5.571674     1.675197
H    -3.344845     1.644853    -4.175349
O    -4.192150     1.177866    -3.984492
H    -4.407726     1.324088    -3.027732
H    -5.071161     4.185163     0.073534
O    -5.514954     3.321559    -0.032095
H    -6.444609     3.447233    -0.310100
H     6.722391    -1.191084    -1.365099
O     5.950782    -1.038960    -0.813054
H     5.528590    -1.905252    -0.616122
H     4.573744    -3.168337    -2.473884
O     3.706330    -2.993360    -2.889327
H     3.707201    -3.611379    -3.646120
H     4.420880    -2.299674     5.619160
O     4.076134    -2.764707     6.411822
H     4.407872    -3.670859     6.329348
H    -0.733972     6.353619     5.081908
O    -1.328379     6.931159     5.620662
H    -1.338437     7.808757     5.180028
H     4.690988    -0.137095    -1.467174
O     3.925546     0.408442    -1.729224
H     3.230738    -0.189166    -2.059640
H    -0.732519     4.547468    -4.032168
O    -1.513714     5.093097    -4.238801
H    -1.358579     5.959204    -3.816380
H     0.664929     3.220529    -2.654621
O     0.673030     3.597804    -3.562842
H     0.717465     2.834746    -4.149059
H    -5.410618    -5.156297     1.792518
O    -4.716626    -5.752857     1.435487
H    -3.874072    -5.341284     1.706789
H     7.866370    -1.701896    -4.037288
O     7.610023    -1.388447    -3.137279
H     7.126612    -0.542433    -3.292898
H     3.672193    -5.065976    -5.295111
O     4.436203    -4.695914    -4.813988
H     4.818209    -5.408930    -4.269037
H    -3.789238     0.046165     4.937021
O    -4.388371     0.512093     5.569767
H    -5.050628    -0.143771     5.861887
H     3.433703    -5.939165    -0.525078
O     4.307124    -5.695115    -0.843328
H     4.387454    -4.733257    -0.698660
H     4.990874    -0.335646    -4.161873
O     4.452429    -1.044503    -4.552062
H     4.124505    -1.627193    -3.834552
H    -1.174642     1.597225    -3.934126
O    -1.823469     2.219912    -4.319183
H    -1.464659     2.551661    -5.165067
H     4.851923    -6.323033    -2.321713
O     5.182938    -6.648678    -3.187791
H     5.999185    -7.132912    -3.001923
H     8.711830    -5.108049    -2.925239
O     8.019002    -5.523441    -2.367020
H     8.049837    -6.480821    -2.469837
H     2.350378     4.726905     0.455552
O     1.771310     4.710465     1.226916
H     1.410299     3.791613     1.303896
H    -4.431487    -2.603268     4.231555
O    -5.324222    -2.260193     4.029147
H    -5.184251    -1.478724     3.454976
H    -5.865407    -3.156020     1.317843
O    -6.331705    -3.710924     1.985404
H    -6.139790    -3.277932     2.836542
H     1.695848     3.473182     6.865704
O     1.074576     3.991311     6.332407
H     0.292637     4.147443     6.904611
H     4.986516    -2.175559     3.613263
O     5.009997    -1.457978     4.278001
H     4.200370    -0.898314     4.122074
H     2.362847    -5.573398     4.833793
O     2.739151    -6.458548     4.572809
H     1.991734    -7.037003     4.398770
H     2.229366    -4.502774    -6.794308
O     2.058269    -4.991087    -5.979031
H     1.796971    -4.299336    -5.322900
H     6.415941    -4.112137    -0.508584
O     7.167663    -4.518561    -0.045863
H     7.673119    -4.942694    -0.767135
H    -1.711455     4.507883     7.706265
O    -0.812082     4.601980     8.091344
H    -0.627238     5.560425     8.116516
H    -5.106971     5.734014    -5.587736
O    -4.501893     4.967762    -5.609559
H    -3.744782     5.180510    -6.176167
H     3.260755    -2.517064    -8.439672
O     3.171174    -3.049732    -7.638552
H     4.048146    -3.029434    -7.210174
H    -0.632591     8.848772    -2.270360
O    -0.506160     9.676136    -1.750693
H     0.255736     9.498420    -1.174525
H     2.057468    -0.908117     5.210955
O     1.482493    -1.432035     5.798012
H     1.578405    -1.088118     6.695557
H     5.188026    -2.023870    -5.696179
O     5.530799    -2.791157    -6.218930
H     5.254220    -3.580387    -5.701782
H     5.668838    -5.224915     4.680374
O     5.147242    -5.138473     5.507329
H     4.423348    -5.767713     5.421711
H    -3.974384     1.173750     7.010366
O    -3.780083     1.648008     7.854448
H    -4.654430     2.037088     8.115993
H    -1.820719     9.640036    -0.736842
O    -2.681339     9.516299    -0.262024
H    -3.290290     10.147535    -0.649041
H    -5.937973     4.734273    -2.931385
O    -6.849316     4.612348    -3.267369
H    -6.761195     3.917675    -3.952308
H     0.058286    -7.046992    -1.148037
O     0.521130    -7.485313    -0.400950
H    -0.158383    -7.678031     0.248167
H    -7.625460     3.840861    -1.963044
O    -7.900457     3.253264    -1.226265
H    -7.753834     2.345137    -1.565069
H     3.965350    -0.897124     6.985076
O     3.977600     0.066993     6.976551
H     4.790940     0.354100     6.545022
H     2.273666     5.805190    -1.175306
O     3.208030     5.508486    -1.061578
H     3.382224     4.968507    -1.855396
H     6.519655    -5.939873     0.665448
O     6.148309    -6.675234     1.198609
H     5.245035    -6.394707     1.426162
H    -3.854003     4.756023     7.787009
O    -3.289763     4.291398     7.127179
H    -3.486571     3.348677     7.237388
H     5.723316    -7.952264     0.130222
O     5.432425    -8.637822    -0.507620
H     4.604446    -8.308663    -0.901288
H    -0.553711     2.055514     7.695986
O    -1.187615     1.993693     6.961196
H    -2.056381     1.855365     7.358244
H    -6.387641    -0.079733     1.064823
O    -6.713182    -0.158587     0.153019
H    -7.631182    -0.431008     0.175580
H    -5.391319    -3.025292    -0.587146
O    -5.137265    -2.323672     0.038650
H    -5.703420    -1.548502    -0.149319
H     4.332523     5.577374     0.323445
O     4.667114     5.675861     1.228638
H     3.974951     6.188788     1.681520
H    -9.058965    -1.692190    -2.250211
O    -8.513792    -1.488853    -1.463027
H    -8.639153    -2.227346    -0.826297
H    -5.524220     3.514544    -5.520997
O    -6.042267     2.804004    -5.106285
H    -5.375334     2.217668    -4.694450
H     3.166818    -0.879934    -5.656443
O     2.310123    -0.996431    -6.121761
H     2.392415    -1.845261    -6.596114
H     8.098703    -1.361007    -6.032937
O     8.103657    -2.225321    -5.577024
H     7.245841    -2.621764    -5.827556
H     7.614152     0.981587    -6.311899
O     7.421621     0.134282    -6.725537
H     6.440081     0.088292    -6.761403
H    -7.883391    -3.642713     0.930787
O    -8.560779    -3.532203     0.245750
H    -8.466107    -4.292889    -0.355177
H    -2.379775     8.763161     1.301264
O    -2.231080     8.173262     2.053730
H    -1.462968     7.617625     1.830249
H    -4.424021     6.468735     3.504595
O    -4.593178     6.895182     2.648093
H    -3.828006     7.478888     2.508398
H     3.405289     3.452538    -3.575546
O     3.255830     4.422278    -3.481298
H     2.291217     4.491004    -3.588596
H    -6.130683    -1.561148    -3.439740
O    -6.216807    -2.139895    -2.655606
H    -6.998437    -1.829673    -2.146431
H     6.466357     1.037496     4.738344
O     6.074653     1.577228     5.441841
H     6.266099     2.495416     5.151438
H     1.357834     1.738049    -5.821136
O     1.161049     1.142292    -5.067288
H     1.521567     0.278192    -5.337779
H    -2.480595     2.983520     10.488308
O    -2.272259     2.075239     10.214206
H    -2.871094     1.878601     9.481977
H     7.619102    -0.513662     3.080592
O     6.871306     0.064735     3.249991
H     6.176961    -0.533094     3.629500
H    -5.699595    -8.013510    -0.702830
O    -4.964860    -8.085440    -0.056793
H    -4.965082    -7.268548     0.465750
H    -5.186616    -0.076839    -4.712198
O    -5.807477    -0.786036    -4.950652
H    -6.642268    -0.340628    -5.152660
H     1.877815    -0.183524    -7.515141
O     1.677493     0.289621    -8.358585
H     2.252282    -0.117309    -9.012302
H     4.854291    -1.389231    -9.306412
O     3.929880    -1.156553    -9.587979
H     3.908904    -1.273338    -10.537140
H     7.547461    -2.587194     4.195694
O     7.693702    -2.623225     3.236119
H     7.197139    -3.411970     2.963999
H     6.690460    -5.906945     2.678587
O     6.754986    -5.232449     3.380126
H     7.630763    -5.321129     3.797532
H    -1.791376     8.970263     3.505081
O    -1.541990     9.272984     4.403617
H    -2.390002     9.409058     4.859464
H    -7.392915     1.622245    -5.244466
O    -7.969558     0.878347    -5.000430
H    -8.873541     1.270774    -4.935859
H     6.909887    -1.087864    -8.407460
O     6.324882    -1.806398    -8.671243
H     6.095779    -2.255983    -7.839496
H    -1.664079     6.270142    -7.016664
O    -2.063848     5.445738    -6.743251
H    -1.816134     5.314254    -5.779726
H     0.010220     3.322448     9.026800
O     0.203513     2.401641     9.281014
H    -0.595542     2.140471     9.787854
H     6.735739    -2.787950    -2.709014
O     6.202454    -3.530360    -2.368337
H     6.667849    -4.342811    -2.615402
H    -4.099923    -3.035671    -4.942730
O    -4.254677    -2.922106    -5.907332
H    -4.797698    -2.126273    -5.963337
H     1.984814     2.187631     8.467203
O     2.648539     2.297771     7.776653
H     3.067422     1.426005     7.660675
H    -6.937192    -5.155087    -1.394611
O    -7.854685    -5.419177    -1.639482
H    -7.986509    -5.016972    -2.522706
H    -3.811231     5.285837     5.704024
O    -3.775997     6.054121     5.113193
H    -2.840930     6.345246     5.207101
H    -7.891308     0.134288    -1.961309
O    -7.406479     0.862030    -2.373682
H    -7.627235     0.848023    -3.328540
H     5.830252     0.123617     0.410543
O     5.611300     0.845556     1.031975
H     6.121287     0.648026     1.844515
H    -6.206713     3.349676     7.402553
O    -6.080367     2.830325     8.230733
H    -6.683768     2.071540     8.142579
H     2.237397    -8.064993    -0.847410
O     2.913740    -8.054368    -1.544291
H     2.685836    -8.767350    -2.157568
H    -2.771291    -3.928744    -6.197388
O    -2.020256    -4.498452    -5.965941
H    -1.742023    -4.208364    -5.068896
H    -5.633997     3.799064     5.315985
O    -6.282079     4.197564     5.932973
H    -6.113854     5.140837     5.921392
H    -1.056657    -7.090422    -3.166158
O    -0.581620    -6.422702    -2.637715
H     0.326236    -6.356999    -3.018601
H     4.446952     2.013001     5.129674
O     3.506158     2.256039     5.010174
H     3.122503     2.273451     5.892322
H     4.123142     4.654309     6.303802
O     4.206693     5.384461     5.686092
H     3.637633     5.146791     4.915395
H     2.773313     3.621566     3.925475
O     2.599235     4.562427     3.760179
H     2.479777     4.662149     2.793876
H     9.385926     0.191219    -1.074013
O     8.580612     0.356976    -0.580263
H     8.401826    -0.461342    -0.087361
H    -2.082669     5.340800     10.656894
O    -2.807097     4.714973     10.888174
H    -3.024421     4.892742     11.803499
H     7.952980    -3.024467     0.323292
O     8.377593    -2.179633     0.578680
H     8.312315    -2.175002     1.541033
H     5.379115     3.658832     3.526453
O     6.036721     3.921028     4.192576
H     5.627329     4.640536     4.694915
H    -4.192203     5.052209     9.791830
O    -4.825020     5.205707     9.070081
H    -5.439928     4.459616     9.067925
H    -7.034316    -3.429572    -3.482702
O    -7.659062    -4.036424    -3.931860
H    -7.139875    -4.481673    -4.633779
H     0.049169     6.140679     10.776529
O    -0.814314     6.475372     10.529859
H    -0.697299     6.906174     9.663832
H     2.585213     1.505401    -4.104121
O     3.465140     1.854424    -3.865859
H     3.783838     1.337909    -3.095681
H    -6.978171    -0.176228     7.224690
O    -7.483565     0.604165     7.505466
H    -8.106393     0.790417     6.801840
H    -2.790891    -9.843879    -0.832924
O    -2.724310    -8.902389    -0.992327
H    -3.628485    -8.532585    -0.751008
H    -10.009108     2.992068    -5.017349
O    -10.275371     2.124945    -4.668786
H    -10.262832     2.306701    -3.704429
H    -2.085884    -3.000524     4.614895
O    -2.962852    -3.436724     4.684369
H    -2.959208    -4.054608     3.928155
H    -0.217419    -7.965500     2.482343
O     0.609941    -7.758403     2.929950
H     1.326868    -8.056980     2.342801
H     6.691441    -2.388893     6.389405
O     7.137558    -3.100340     5.925224
H     6.504540    -3.832546     5.886946
H    -5.285160    -1.967379     6.946915
O    -5.959778    -1.466558     6.463388
H    -5.945430    -1.843328     5.554192
H     0.836818     3.051781    -7.111695
O     1.752927     2.716883    -7.168229
H     1.735779     1.970069    -7.794802
H    -3.924198     8.787780     6.681530
O    -3.922688     8.785821     5.724171
H    -4.052004     7.858958     5.456197
H    -2.026719     10.342693    -2.729244
O    -2.928239     10.527567    -3.029282
H    -2.855938     11.161445    -3.742201
H     9.388010    -4.084377     4.038785
O     9.105633    -4.761668     4.661084
H     8.678662    -4.287888     5.385794
H    -0.770016    -5.972736    -5.842447
O    -0.068877    -6.542238    -5.509187
H     0.768511    -6.084276    -5.727262
H     1.851610     8.285682     0.669861
O     1.548948     8.608953    -0.207365
H     2.363369     8.644219    -0.738427
H     3.498782     2.937620    -6.660962
O     4.325403     2.643602    -6.252422
H     4.079675     2.370570    -5.343494
H     3.753536     7.128560    -1.226260
O     3.962990     8.063526    -1.439329
H     4.331318     8.006459    -2.332958
H     4.382858    -0.002569    -7.912766
O     4.760822     0.141567    -7.043372
H     4.583260     1.074179    -6.799285
H     6.030175     1.926690    -0.475977
O     6.595676     2.117865    -1.238110
H     7.418486     1.634872    -1.044952
H     6.640987    -8.439886    -1.613815
O     7.277208    -8.231352    -2.350728
H     7.640854    -9.066821    -2.638941
H    -5.336574    -5.745417    -5.406001
O    -5.951377    -5.070141    -5.718545
H    -5.396693    -4.304908    -5.956820
H     0.707425     7.185069     7.606597
O    -0.193814     7.215778     7.966612
H    -0.749714     7.233463     7.149471
H    -8.920454    -2.777121    -4.095104
O    -9.435551    -1.963917    -3.931464
H    -9.143427    -1.305465    -4.565478
H    -2.443897    -5.958526    -2.144041
O    -3.321074    -5.668555    -2.412076
H    -3.509954    -6.042217    -3.297955
H    -3.021670    -5.866271    -5.409565
O    -3.624057    -6.473563    -4.937218
H    -3.145518    -7.296020    -4.771360
H    -1.386992     3.755310    -6.978130
O    -0.850265     2.996700    -6.707803
H    -1.090620     2.213296    -7.258532
H    -0.214911     0.441708    -8.214309
O    -1.109914     0.680024    -7.930169
H    -1.286343     0.156867    -7.132306
H    -10.071622     4.187882    -2.850294
O    -10.354887     3.482691    -2.237136
H    -9.591070     3.376600    -1.634280
H     4.589566     4.079120     1.721903
O     4.377670     3.158720     1.999774
H     5.091204     2.580230     1.717876
H     6.480930     1.392249    -4.220888
O     6.175678     0.768966    -3.527082
H     6.209166     1.263865    -2.683039
H     9.615272    -2.246907    -0.934526
O     9.892188    -2.033149    -1.834369
H     9.092959    -1.690904    -2.277116
H     9.945992    -3.341917    -3.104525
O     9.675809    -3.992483    -3.779637
H     9.283891    -3.482865    -4.499451
H    -7.742146    -8.524009    -1.665495
O    -7.002521    -7.931853    -1.793671
H    -7.376813    -7.017778    -1.782635
H     4.175031     6.084635    -3.818355
O     4.838976     6.783135    -3.733157
H     5.673493     6.325813    -3.596657
H     0.053613    -8.149529    -5.218719
O     0.073068    -9.132562    -5.087204
H     0.222016    -9.496703    -5.959880
H    -2.377463    -8.644117    -2.718129
O    -2.143730    -8.380533    -3.627735
H    -1.499665    -9.001108    -3.987549
H     2.129585    -10.805108    -3.501343
O     2.087061    -9.850421    -3.476282
H     1.302555    -9.576230    -4.002019
H     6.838598     3.323636    -4.575118
O     6.893517     2.645438    -5.276234
H     6.100382     2.782205    -5.816525
H    -3.583304    -3.693397     7.722672
O    -3.695342    -2.905195     7.192720
H    -3.444989    -3.144791     6.274330
H    -0.663288    -3.337326    -6.724691
O    -0.030140    -2.608467    -6.731904
H    -0.508435    -1.831095    -6.389814
H     0.640273     0.472243     8.754121
O     0.644377    -0.242283     8.113206
H    -0.279081    -0.527313     8.026093
H    -5.812287     7.414618    -4.242630
O    -6.313455     6.795236    -4.804349
H    -6.611619     6.070127    -4.213162
H    -4.251943     9.142179    -3.254171
O    -4.790013     8.347771    -3.147408
H    -4.383011     7.866754    -2.408941
H    -9.645950     5.856461    -4.785261
O    -10.012261     4.964956    -4.612639
H    -10.979519     5.053077    -4.638167
H     2.790214     6.519804     6.143920
O     1.830566     6.620028     6.242461
H     1.483300     5.708161     6.139706
H     4.829988     8.546546     0.087613
O     5.147854     8.545536     1.008392
H     5.551586     7.679628     1.138515
H     4.102127    -7.421947    -4.347824
O     3.342341    -7.703346    -4.889541
H     3.059273    -8.543521    -4.513752
H     0.406288     8.674831     4.240455
O     1.081078     8.027412     4.011563
H     1.306242     7.533438     4.825890
H     5.242269     4.190524    -3.156834
O     6.203618     4.156446    -3.104773
H     6.410660     3.573899    -2.357289
H    -2.588278    -1.519618     7.575564
O    -2.074638    -0.728484     7.795296
H    -2.697386    -0.099982     8.170800
H    -9.011668     7.989604    -4.135205
O    -8.939931     7.420423    -4.902618
H    -7.984054     7.251892    -5.030842
H     3.486197    -8.976555     1.085112
O     2.812176    -8.342106     1.334351
H     3.290214    -7.538902     1.614652
H     3.610133     8.175261     1.833342
O     2.817555     7.614704     1.946007
H     2.372723     7.851993     2.772430
N    -12.687663     4.003284    -4.132034
H    -12.446581     3.904134    -3.201343
H    -12.339625     3.186753    -4.519089
