33

H     0.406372    -3.344922    -4.053607
O     1.311879    -3.087158    -4.327524
H     1.205476    -2.459648    -5.059466
H    -1.533750    -0.852654    -4.508525
O    -1.008984    -0.673040    -5.313949
H    -0.331771    -0.033730    -5.026335
H     2.262569    -4.671817    -6.777673
O     2.107049    -5.106891    -5.929385
H     1.809178    -4.380740    -5.328292
H     3.369689    -2.663976    -8.481834
O     3.265302    -3.150430    -7.642979
H     4.160434    -3.135947    -7.249397
H     3.214347    -0.974408    -5.570336
O     2.370311    -1.153566    -6.049961
H     2.603594    -1.896040    -6.655437
H     1.837814    -0.201250    -7.475395
O     1.370729     0.213590    -8.231174
H     1.349879    -0.485286    -8.905472
H     5.003376    -1.454684    -9.324390
O     4.059675    -1.197342    -9.482823
H     3.975418    -1.119175    -10.436250
H    -2.835264    -4.013083    -6.088906
O    -2.046629    -4.551596    -5.896668
H    -1.771414    -4.276435    -4.990503
H    -0.416225     0.408879    -8.001433
O    -1.361866     0.614873    -7.834920
H    -1.544280     0.162344    -6.996276
H    -0.761527    -3.463163    -6.751373
O    -0.128983    -2.748002    -6.938947
H    -0.493077    -1.991828    -6.437383
N     0.782961    -2.221188    -9.471626
H     0.056101    -2.229189    -10.099592
H     0.370930    -2.463689    -8.610074
