603

H     0.190685     3.034678    -0.686810
O     0.713671     2.364134    -1.176309
H     1.652973     2.496009    -0.905464
H    -0.077918    -1.300146     3.147163
O     0.312800    -0.599813     2.602028
H    -0.166022     0.213166     2.834456
H    -2.407594     2.408815    -0.543495
O    -2.197670     1.940512     0.282212
H    -2.209956     0.992360     0.058133
H    -4.667846     0.545729     2.177922
O    -4.984458    -0.387719     2.191339
H    -4.478360    -0.865628     1.526021
H     0.059751    -0.303566     0.946401
O    -0.140413    -0.068273     0.019836
H     0.199447     0.827897    -0.103620
H    -0.152702    -3.569595     3.776336
O    -0.432819    -2.739665     4.196400
H     0.213636    -2.567458     4.897496
H    -4.895173     2.527461     1.324431
O    -4.254409     2.120709     1.939100
H    -3.412064     2.102632     1.425035
H    -3.266850     3.882548    -2.221108
O    -2.525436     3.292528    -1.986800
H    -2.160932     3.012330    -2.847054
H    -0.124554    -3.800809     0.501893
O     0.214193    -2.982519     0.919127
H    -0.573769    -2.496788     1.230333
H    -2.380009    -1.535726     2.466620
O    -2.191194    -2.002665     1.626300
H    -2.449679    -1.416598     0.895929
H     2.069087    -1.437830    -1.126203
O     2.301312    -1.689307    -0.208398
H     1.512941    -2.117893     0.175917
H    -1.397634     1.827737     1.904667
O    -1.489867     1.431317     2.781235
H    -1.474919     2.144252     3.445429
H     0.206524    -2.700942    -1.572981
O    -0.550708    -2.091249    -1.627061
H    -0.371801    -1.363168    -0.994954
H    -3.437878    -2.927033    -0.392024
O    -2.720467    -3.419051    -0.812431
H    -2.011087    -2.787903    -1.032245
H     2.767954     0.139217     2.926484
O     2.867441    -0.041997     3.888490
H     2.957808     0.851439     4.291990
H    -3.546046     6.366515    -0.566318
O    -3.295453     7.031756    -1.261684
H    -3.165978     7.874031    -0.783332
H     3.895332     0.594358     1.177800
O     2.945177     0.411057     1.294905
H     2.708922    -0.341889     0.715741
H    -5.789654     0.835388    -1.607775
O    -4.879791     1.164358    -1.482711
H    -4.990626     1.992623    -0.971740
H    -1.225226     5.400705     2.198540
O    -1.851555     4.654467     2.083055
H    -1.926514     4.234903     2.945430
H     3.483875     2.771359     0.415389
O     3.234517     2.727479    -0.523217
H     3.568933     1.885834    -0.874295
H     1.491438    -4.693415    -2.252522
O     1.555115    -3.915769    -1.679829
H     2.348777    -3.453581    -2.031931
H    -0.928841    -0.085214    -2.553556
O    -0.295017     0.567143    -2.878288
H    -0.035678     1.151075    -2.142464
H     1.700536    -4.679722    -0.181129
O     1.808424    -5.315775     0.562321
H     1.346321    -6.127976     0.267181
H    -1.228389    -3.266447    -2.882023
O    -1.055248    -3.950748    -3.541927
H    -0.926771    -4.796735    -3.071918
H    -2.789786     3.313087     4.696635
O    -1.808650     3.312591     4.661985
H    -1.514407     2.911570     5.498116
H     0.949734     5.044085     4.064097
O     0.003191     5.274776     4.116752
H    -0.466936     4.470831     4.375631
H    -1.729420    -4.650159    -0.371805
O    -0.963428    -5.189576    -0.086598
H    -1.309699    -5.876290     0.492569
H    -4.007551     5.735055    -2.433299
O    -4.340887     4.938210    -2.851790
H    -4.139193     4.963805    -3.822848
H    -2.430120    -3.687513     1.935176
O    -2.447134    -4.591244     2.312189
H    -1.506884    -4.827873     2.452276
H    -4.698237    -2.986735    -2.899078
O    -3.846028    -3.218534    -3.306018
H    -3.513009    -4.010908    -2.840119
H     0.333332     1.385503     4.607780
O     0.837014     2.146619     4.272832
H     0.886288     2.805854     4.979352
H    -4.654129    -5.174854    -1.569305
O    -5.356280    -4.822013    -0.995487
H    -5.141953    -5.175275    -0.111158
H     2.328026    -6.478503    -4.040419
O     1.990876    -6.149929    -3.186882
H     2.426945    -6.722228    -2.523449
H     0.463608    -3.378761    -4.008785
O     1.265925    -3.011559    -4.432217
H     0.946073    -2.640382    -5.280805
H     1.962233    -1.743460     2.976558
O     2.118420    -2.674484     2.760556
H     1.432763    -2.889712     2.093838
H    -3.020128    -1.812950    -3.212259
O    -2.599670    -0.925815    -3.147003
H    -3.255178    -0.281340    -3.468931
H    -3.202622     4.977435     1.065481
O    -3.985011     5.351020     0.611367
H    -4.398941     5.907790     1.319397
H     0.868301     2.260929     2.582849
O     0.968006     2.255850     1.611591
H     1.695697     1.633607     1.446764
H     0.177159     5.659455    -0.771394
O     0.703300     6.320559    -1.276254
H     0.841232     7.121547    -0.721314
H     0.328043     7.042312     2.577654
O    -0.035589     6.661117     1.761228
H     0.629128     5.991337     1.498660
H    -2.484880     0.218811     3.336152
O    -2.705681    -0.594760     3.842287
H    -1.944475    -0.632890     4.463308
H    -0.898000     0.562010     6.019505
O    -0.623844     0.042460     5.245261
H     0.091042    -0.559616     5.531763
H     0.711981    -4.987555     1.978978
O     0.170292    -5.097267     2.783856
H     0.316813    -6.017337     3.056824
H    -2.112411    -8.087359     0.451578
O    -1.790462    -7.598308     1.236283
H    -2.577003    -7.287601     1.692257
H    -0.357610     6.879111    -2.260210
O    -1.112136     7.287407    -2.769189
H    -1.886233     7.139536    -2.186710
H    -1.127529     4.311040     0.561828
O    -0.756165     4.374825    -0.334523
H    -1.460896     4.127383    -0.967143
H    -4.417763     2.747666     3.500666
O    -4.417106     2.919614     4.464984
H    -4.498077     2.036784     4.875190
H     2.025337    -3.571665     4.240765
O     1.962683    -4.043023     5.094586
H     2.469736    -3.505127     5.724205
H     4.686763    -3.183568     0.833515
O     4.525499    -3.109336    -0.132887
H     3.665959    -2.633186    -0.216402
H    -2.728293    -0.749964    -1.355389
O    -3.055954    -0.480202    -0.480841
H    -3.856992     0.044380    -0.687978
H    -1.623020    -0.763507    -4.635200
O    -1.117344    -0.548778    -5.439945
H    -0.408879     0.050843    -5.157384
H     1.789556    -1.711798    -3.382736
O     1.880524    -0.965107    -2.759316
H     1.102959    -0.388374    -2.891635
H     3.662774    -3.110965     2.545635
O     4.622128    -3.338536     2.472427
H     4.678338    -4.298515     2.599797
H     3.430674    -6.109846     3.121349
O     3.785467    -5.909527     2.220726
H     3.047191    -5.565421     1.677864
H    -3.354707     1.604968    -4.185692
O    -4.199358     1.133424    -3.992757
H    -4.414570     1.280050    -3.036318
H    -5.094142     4.144887     0.059739
O    -5.532694     3.278926    -0.042687
H    -6.462339     3.396884    -0.326216
H     6.728421    -1.170377    -1.372232
O     5.956939    -1.021639    -0.819080
H     5.539157    -1.889790    -0.621083
H     4.590563    -3.161717    -2.476151
O     3.721929    -2.992386    -2.891272
H     3.725805    -3.611242    -3.647345
H     4.434895    -2.278346     5.615376
O     4.093174    -2.743644     6.409235
H     4.429642    -3.648187     6.328178
H    -0.767123     6.344928     5.063220
O    -1.364824     6.920689     5.600615
H    -1.378602     7.797328     5.158763
H     4.691283    -0.128172    -1.475053
O     3.922656     0.412749    -1.737030
H     3.231180    -0.188907    -2.067264
H    -0.632063     4.504477    -4.045066
O    -1.434199     5.025249    -4.260472
H    -1.295378     5.875919    -3.806245
H     0.653357     3.199925    -2.665568
O     0.662367     3.578731    -3.572663
H     0.702157     2.818478    -4.162603
H    -5.381482    -5.195848     1.796849
O    -4.684231    -5.789872     1.441706
H    -3.844033    -5.372558     1.711339
H     7.874495    -1.679912    -4.043415
O     7.616930    -1.366252    -3.143782
H     7.128775    -0.523118    -3.300953
H     3.698289    -5.068780    -5.293745
O     4.460649    -4.694203    -4.813400
H     4.846310    -5.404273    -4.267321
H    -3.787905     0.021994     4.930910
O    -4.389184     0.485888     5.563348
H    -5.048026    -0.173086     5.856315
H     3.465893    -5.934627    -0.521975
O     4.338245    -5.686789    -0.840257
H     4.413243    -4.724122    -0.698031
H     4.991650    -0.329277    -4.169827
O     4.457736    -1.042554    -4.558172
H     4.132518    -1.624922    -3.839326
H    -1.183596     1.570332    -3.945676
O    -1.838013     2.187502    -4.329143
H    -1.482013     2.525488    -5.174077
H     4.885837    -6.314319    -2.317850
O     5.218358    -6.640064    -3.183320
H     6.037375    -7.119269    -2.996723
H     8.738948    -5.079225    -2.925231
O     8.048820    -5.497552    -2.365830
H     8.084773    -6.454881    -2.467173
H     2.324616     4.727545     0.439132
O     1.745087     4.709567     1.210258
H     1.390135     3.788433     1.289232
H    -4.415885    -2.632664     4.230906
O    -5.310492    -2.294387     4.028903
H    -5.175006    -1.513885     3.452260
H    -5.847727    -3.199043     1.318510
O    -6.309574    -3.755723     1.987824
H    -6.120720    -3.319287     2.837766
H     1.678891     3.481909     6.851627
O     1.054625     3.996072     6.317923
H     0.271815     4.148151     6.889890
H     4.999272    -2.155143     3.609234
O     5.019025    -1.436212     4.272706
H     4.206424    -0.881191     4.115728
H     2.394610    -5.564733     4.836811
O     2.775814    -6.448327     4.577714
H     2.031568    -7.031090     4.404398
H     2.252224    -4.516784    -6.793278
O     2.084174    -5.004551    -5.977008
H     1.818862    -4.312816    -5.322323
H     6.438441    -4.091412    -0.509750
O     7.192338    -4.493105    -0.046373
H     7.699894    -4.915720    -0.767060
H    -1.734406     4.499739     7.690790
O    -0.835725     4.599456     8.076026
H    -0.655805     5.558784     8.099181
H    -5.091401     5.594862    -5.612692
O    -4.505001     4.827038    -5.519846
H    -3.715372     4.971222    -6.098041
H     3.271902    -2.528687    -8.442597
O     3.186207    -3.061241    -7.640939
H     4.063008    -3.034240    -7.212714
H    -0.676934     8.831106    -2.287972
O    -0.558728     9.660625    -1.763960
H     0.208429     9.488430    -1.192872
H     2.063882    -0.900528     5.204845
O     1.491997    -1.426177     5.793413
H     1.586686    -1.080050     6.690195
H     5.197817    -2.019482    -5.700866
O     5.544945    -2.785982    -6.221992
H     5.272375    -3.575623    -5.703463
H     5.698695    -5.198446     4.681801
O     5.176961    -5.113383     5.508828
H     4.456332    -5.746534     5.424388
H    -3.978679     1.152305     7.002018
O    -3.786859     1.629766     7.845034
H    -4.663377     2.014032     8.106066
H    -1.868350     9.611717    -0.767063
O    -2.734045     9.480414    -0.299076
H    -3.333465     10.135572    -0.656851
H    -5.966493     4.682774    -2.955951
O    -6.873054     4.581284    -3.310911
H    -6.786735     3.868750    -3.979332
H     0.096926    -7.062275    -1.141723
O     0.562242    -7.496710    -0.393813
H    -0.116219    -7.691701     0.255733
H    -7.648467     3.785512    -1.992311
O    -7.906762     3.202401    -1.249367
H    -7.764265     2.291049    -1.583563
H     3.972059    -0.875584     6.978630
O     3.979277     0.088589     6.968855
H     4.790640     0.379252     6.535950
H     2.246030     5.800431    -1.192290
O     3.181923     5.508721    -1.078508
H     3.357519     4.969379    -1.872835
H     6.552394    -5.916417     0.667790
O     6.185306    -6.652648     1.202753
H     5.280465    -6.376652     1.429668
H    -3.878314     4.736594     7.771487
O    -3.311926     4.274345     7.111912
H    -3.502746     3.330567     7.224211
H     5.766750    -7.934069     0.136768
O     5.479365    -8.622607    -0.499440
H     4.649586    -8.298649    -0.893708
H    -0.562767     2.053444     7.685135
O    -1.196622     1.987760     6.950696
H    -2.064430     1.844685     7.348136
H    -6.388554    -0.126419     1.060899
O    -6.711148    -0.208407     0.148610
H    -7.628309    -0.484343     0.168503
H    -5.374917    -3.068742    -0.586833
O    -5.124452    -2.364959     0.037971
H    -5.694972    -1.593206    -0.151696
H     4.303210     5.587279     0.304773
O     4.637048     5.689703     1.210021
H     3.941918     6.199560     1.661515
H    -9.050423    -1.756312    -2.251049
O    -8.503046    -1.552322    -1.465274
H    -8.627958    -2.288987    -0.827057
H    -5.552254     3.444266    -5.530311
O    -6.072291     2.737385    -5.108321
H    -5.401149     2.155962    -4.696222
H     3.170332    -0.886774    -5.662994
O     2.314007    -1.009713    -6.127057
H     2.401022    -1.858489    -6.600450
H     8.104364    -1.341399    -6.039503
O     8.114479    -2.204930    -5.582063
H     7.258615    -2.606347    -5.831560
H     7.606575     0.997850    -6.323331
O     7.418865     0.148387    -6.734776
H     6.437473     0.097317    -6.770912
H    -7.862299    -3.698562     0.933661
O    -8.541277    -3.593301     0.249560
H    -8.442332    -4.353423    -0.351209
H    -2.422059     8.739148     1.274859
O    -2.274051     8.152109     2.029302
H    -1.502537     7.598656     1.810624
H    -4.459177     6.437475     3.484437
O    -4.629268     6.862968     2.627431
H    -3.865699     7.448966     2.488632
H     3.387157     3.450500    -3.589384
O     3.234429     4.419522    -3.494586
H     2.269930     4.484610    -3.606292
H    -6.123014    -1.614906    -3.442008
O    -6.205124    -2.192652    -2.656733
H    -6.989272    -1.885756    -2.148477
H     6.461812     1.067874     4.727949
O     6.067435     1.606894     5.430540
H     6.253832     2.525484     5.138160
H     1.345363     1.721588    -5.831596
O     1.153085     1.125214    -5.076268
H     1.518679     0.263293    -5.346262
H    -2.494438     2.976651     10.476019
O    -2.281180     2.068964     10.203858
H    -2.878846     1.867533     9.471946
H     7.622681    -0.480013     3.072499
O     6.872004     0.094715     3.241667
H     6.180905    -0.506280     3.622038
H    -5.655663    -8.059303    -0.692871
O    -4.920406    -8.126237    -0.046780
H    -4.924797    -7.308177     0.473957
H    -5.187577    -0.128235    -4.717839
O    -5.804152    -0.841448    -4.955052
H    -6.642994    -0.401767    -5.154188
H     1.875904    -0.200976    -7.522676
O     1.672402     0.267755    -8.367560
H     2.250433    -0.136615    -9.019919
H     4.859555    -1.394384    -9.312177
O     3.933608    -1.168152    -9.593656
H     3.913203    -1.284417    -10.542874
H     7.562729    -2.551738     4.191649
O     7.708997    -2.588671     3.232125
H     7.216617    -3.380515     2.961403
H     6.723352    -5.878593     2.680783
O     6.784552    -5.202690     3.381328
H     7.660975    -5.285903     3.798382
H    -1.839616     8.953292     3.481817
O    -1.592643     9.260161     4.379310
H    -2.441406     9.390560     4.835546
H    -7.405344     1.549998    -5.250201
O    -7.980056     0.804814    -5.005472
H    -8.881480     1.203302    -4.930413
H     6.913188    -1.078956    -8.414333
O     6.333154    -1.802057    -8.676636
H     6.106105    -2.250609    -7.843774
H    -2.317194     6.245956    -6.940001
O    -2.213832     5.309798    -6.737627
H    -1.797077     5.283019    -5.828709
H    -0.005606     3.326053     9.013570
O     0.192832     2.406937     9.269749
H    -0.604793     2.142233     9.776977
H     6.750254    -2.769427    -2.712783
O     6.221469    -3.514158    -2.370050
H     6.690786    -4.324487    -2.616512
H    -4.084479    -3.080804    -4.942805
O    -4.240083    -2.970133    -5.907591
H    -4.787441    -2.177256    -5.964725
H     1.975089     2.200637     8.455653
O     2.637983     2.313488     7.764764
H     3.061741     1.443874     7.650020
H    -6.909176    -5.209002    -1.389514
O    -7.824716    -5.479832    -1.633919
H    -7.959306    -5.078944    -2.517491
H    -3.839284     5.263059     5.686318
O    -3.807904     6.030861     5.094467
H    -2.873997     6.326014     5.187939
H    -7.894365     0.079854    -1.964948
O    -7.408486     0.805313    -2.380007
H    -7.635132     0.789104    -3.333742
H     5.829650     0.142912     0.401764
O     5.606838     0.864507     1.022272
H     6.118386     0.671227     1.834780
H    -6.223366     3.316432     7.390262
O    -6.094040     2.799893     8.219672
H    -6.692823     2.037197     8.133039
H     2.280827    -8.067539    -0.840225
O     2.957559    -8.055017    -1.536713
H     2.733213    -8.770044    -2.148900
H    -2.751432    -3.968998    -6.195993
O    -1.997525    -4.534603    -5.963586
H    -1.720314    -4.240792    -5.067454
H    -5.653521     3.764543     5.302917
O    -6.303530     4.161623     5.918940
H    -6.138900     5.105491     5.906457
H    -1.018532    -7.115543    -3.159325
O    -0.546784    -6.444667    -2.631958
H     0.360309    -6.374167    -3.013701
H     4.437365     2.033586     5.117417
O     3.495273     2.271672     4.998106
H     3.111901     2.287914     5.880374
H     4.099776     4.674983     6.286604
O     4.177910     5.405077     5.668111
H     3.610674     5.162266     4.897663
H     2.754652     3.630884     3.910743
O     2.574676     4.570372     3.743765
H     2.455091     4.667436     2.777173
H     9.384390     0.226639    -1.084321
O     8.579122     0.389273    -0.589447
H     8.404432    -0.429515    -0.095879
H    -2.109103     5.336405     10.640095
O    -2.830299     4.707364     10.872673
H    -3.047825     4.885101     11.787954
H     7.969583    -2.994069     0.319643
O     8.390015    -2.146678     0.573486
H     8.324658    -2.140461     1.535802
H     5.360771     3.681020     3.510801
O     6.016513     3.948066     4.176984
H     5.603358     4.666757     4.677239
H    -4.217346     5.034640     9.775952
O    -4.851399     5.183475     9.054296
H    -5.461829     4.433668     9.053483
H    -7.016355    -3.488172    -3.481069
O    -7.636559    -4.101277    -3.928128
H    -7.115317    -4.543656    -4.630118
H     0.018253     6.147490     10.758013
O    -0.846819     6.477655     10.510787
H    -0.731964     6.907111     9.643817
H     2.575268     1.499169    -4.116008
O     3.453901     1.851879    -3.877812
H     3.774612     1.338682    -3.106615
H    -6.974839    -0.213598     7.219978
O    -7.484539     0.564575     7.499328
H    -8.108633     0.745527     6.795413
H    -2.737300    -9.874053    -0.820216
O    -2.675668    -8.932526    -0.981329
H    -3.581848    -8.567033    -0.740556
H    -10.085928     3.058625    -4.898411
O    -10.202488     2.141820    -4.616213
H    -10.417226     2.225547    -3.666529
H    -2.068065    -3.016529     4.614313
O    -2.942547    -3.457419     4.685157
H    -2.935963    -4.076390     3.929766
H    -0.172873    -7.975166     2.490512
O     0.653447    -7.763072     2.937741
H     1.371819    -8.058555     2.350806
H     6.706056    -2.353687     6.384927
O     7.156196    -3.063719     5.922466
H     6.527060    -3.799334     5.885361
H    -5.272335    -1.996086     6.945101
O    -5.949717    -1.499527     6.461075
H    -5.933561    -1.877785     5.552373
H     0.823253     3.038992    -7.122996
O     1.736150     2.695830    -7.176130
H     1.718354     1.953091    -7.807079
H    -3.969138     8.766388     6.657796
O    -3.970812     8.761585     5.700416
H    -4.093073     7.832612     5.435943
H    -1.936048     10.384976    -2.722582
O    -2.815339     10.611349    -3.076927
H    -2.628938     11.004712    -3.933996
H     9.411305    -4.038942     4.036717
O     9.133316    -4.716457     4.660753
H     8.703557    -4.243572     5.384397
H    -0.738817    -6.001334    -5.837563
O    -0.034264    -6.566441    -5.503942
H     0.800371    -6.103884    -5.723048
H     1.808208     8.284125     0.646346
O     1.502595     8.605087    -0.230821
H     2.316177     8.641494    -0.763587
H     3.481347     2.931453    -6.674930
O     4.309347     2.640843    -6.266306
H     4.064604     2.369434    -5.356783
H     3.715334     7.132396    -1.247647
O     3.917358     8.068891    -1.461575
H     4.285441     8.012849    -2.355532
H     4.380203    -0.006634    -7.920877
O     4.758467     0.140798    -7.052168
H     4.575146     1.072864    -6.809347
H     6.019568     1.945050    -0.488262
O     6.584127     2.137962    -1.250578
H     7.409471     1.659617    -1.056838
H     6.686525    -8.420206    -1.606401
O     7.321574    -8.209807    -2.343793
H     7.688604    -9.044046    -2.631264
H    -5.305769    -5.798038    -5.400795
O    -5.924361    -5.127328    -5.715585
H    -5.374389    -4.358743    -5.954093
H     0.670470     7.189439     7.585743
O    -0.230867     7.216745     7.945903
H    -0.787039     7.229149     7.128976
H    -8.904957    -2.846980    -4.095795
O    -9.426342    -2.038718    -3.929607
H    -9.141093    -1.374890    -4.561243
H    -2.411306    -5.989436    -2.139161
O    -3.290443    -5.705339    -2.406949
H    -3.477606    -6.081008    -3.292329
H    -2.991103    -5.905955    -5.404331
O    -3.589670    -6.516199    -4.930816
H    -3.106269    -7.335514    -4.763787
H    -1.395475     3.729749    -6.995570
O    -0.871752     2.970491    -6.714392
H    -1.106523     2.188305    -7.269199
H    -0.220123     0.413801    -8.222175
O    -1.116238     0.647688    -7.938061
H    -1.288857     0.125171    -7.139011
H    -10.439137     4.039843    -2.736468
O    -10.505455     3.264199    -2.164358
H    -9.673925     3.238156    -1.659215
H     4.568202     4.093626     1.705991
O     4.361892     3.172974     1.987280
H     5.077466     2.597351     1.704599
H     6.471697     1.406156    -4.232847
O     6.171151     0.782323    -3.537306
H     6.201453     1.279527    -2.694590
H     9.627188    -2.209691    -0.940272
O     9.902809    -1.996113    -1.840549
H     9.101585    -1.659106    -2.283829
H     9.963234    -3.306882    -3.108261
O     9.696652    -3.960256    -3.782098
H     9.301419    -3.454169    -4.502628
H    -7.696123    -8.582484    -1.653570
O    -6.959282    -7.987187    -1.783176
H    -7.338187    -7.074725    -1.774267
H     4.140540     6.089202    -3.839366
O     4.801983     6.789586    -3.749902
H     5.638544     6.334769    -3.618049
H     0.096868    -8.172158    -5.210443
O     0.122015    -9.154927    -5.077320
H     0.272536    -9.519528    -5.949529
H    -2.330587    -8.675589    -2.707922
O    -2.098520    -8.412770    -3.618161
H    -1.450943    -9.030333    -3.976779
H     2.187420    -10.813401    -3.489035
O     2.139897    -9.858920    -3.465443
H     1.353967    -9.589669    -3.991688
H     6.818483     3.338688    -4.591145
O     6.876961     2.659074    -5.290603
H     6.082856     2.790472    -5.831024
H    -3.560959    -3.711633     7.723500
O    -3.677109    -2.924781     7.192432
H    -3.426068    -3.164688     6.274232
H    -0.647068    -3.366645    -6.725301
O    -0.017027    -2.635178    -6.733617
H    -0.498832    -1.859015    -6.393544
H     0.639783     0.478980     8.746329
O     0.647846    -0.236595     8.106658
H    -0.273968    -0.527081     8.020117
H    -5.986107     7.302398    -4.242878
O    -6.450035     6.670634    -4.812556
H    -6.723585     5.928668    -4.206228
H    -3.941824     9.152941    -3.343050
O    -4.407022     8.297488    -3.448899
H    -4.110134     7.803044    -2.666301
H    -9.734362     5.783754    -4.648321
O    -10.264238     4.977467    -4.486479
H    -11.145940     5.173760    -4.805119
H     2.756124     6.532734     6.124040
O     1.795903     6.628274     6.222455
H     1.453717     5.714189     6.121674
H     4.783176     8.559247     0.062765
O     5.100736     8.561690     0.983794
H     5.510191     7.698610     1.114971
H     4.141558    -7.420980    -4.341954
O     3.383491    -7.707883    -4.883160
H     3.104848    -8.548624    -4.505366
H     0.360799     8.671490     4.218358
O     1.038064     8.026770     3.989578
H     1.267060     7.535480     4.804570
H     5.218609     4.200358    -3.174313
O     6.180203     4.170776    -3.121958
H     6.389910     3.590900    -2.373271
H    -2.577631    -1.532654     7.571983
O    -2.068544    -0.738197     7.790523
H    -2.695044    -0.112632     8.164631
H    -9.072883     7.903435    -4.093907
O    -8.990253     7.352359    -4.873530
H    -8.031957     7.197095    -5.000112
H     3.536009    -8.968466     1.093488
O     2.858548    -8.337767     1.342925
H     3.332102    -7.531162     1.621015
H     3.566642     8.184036     1.808565
O     2.775953     7.620881     1.923062
H     2.331862     7.856791     2.750143
N    -3.502400     7.906842    -6.211506
H    -3.703047     7.940645    -5.259153
H    -4.298830     8.242947    -6.632790
