603

H     0.225270     3.009477    -0.679402
O     0.752374     2.340456    -1.167331
H     1.689313     2.472514    -0.889008
H    -0.059838    -1.311599     3.168758
O     0.333315    -0.613068     2.622955
H    -0.147262     0.200409     2.850432
H    -2.373063     2.384054    -0.546164
O    -2.164392     1.917457     0.280534
H    -2.179004     0.968554     0.059873
H    -4.646083     0.527765     2.169146
O    -4.961017    -0.406243     2.185105
H    -4.452592    -0.885850     1.522888
H     0.088224    -0.323121     0.965979
O    -0.103377    -0.091464     0.036534
H     0.232318     0.806332    -0.085274
H    -0.136308    -3.579468     3.806178
O    -0.418506    -2.747553     4.220796
H     0.223277    -2.572597     4.925473
H    -4.869990     2.507043     1.307125
O    -4.232458     2.101708     1.926701
H    -3.387261     2.083776     1.418192
H    -3.218484     3.862201    -2.232683
O    -2.480650     3.267751    -1.995799
H    -2.117532     2.977212    -2.852488
H    -0.091778    -3.821984     0.533404
O     0.245611    -3.001175     0.947308
H    -0.543997    -2.515061     1.254126
H    -2.357904    -1.551610     2.477330
O    -2.163096    -2.020601     1.639337
H    -2.420326    -1.437733     0.906076
H     2.108389    -1.463043    -1.091977
O     2.337845    -1.712209    -0.173297
H     1.547446    -2.138536     0.210007
H    -1.376010     1.811527     1.909125
O    -1.470532     1.417236     2.786356
H    -1.461339     2.132386     3.448465
H     0.248518    -2.728951    -1.542938
O    -0.506395    -2.117565    -1.606833
H    -0.332577    -1.388955    -0.973935
H    -3.400858    -2.954343    -0.382707
O    -2.679725    -3.445714    -0.797730
H    -1.970574    -2.813764    -1.014800
H     2.785760     0.129193     2.958580
O     2.881370    -0.049163     3.921296
H     2.968444     0.845650     4.322792
H    -3.512550     6.351229    -0.576625
O    -3.272023     7.011093    -1.278698
H    -3.134628     7.858699    -0.811585
H     3.922934     0.578729     1.214017
O     2.972266     0.395231     1.325824
H     2.739516    -0.360407     0.749081
H    -5.747550     0.803835    -1.623984
O    -4.838382     1.133800    -1.495024
H    -4.953763     1.964335    -0.987778
H    -1.206312     5.385565     2.192146
O    -1.828623     4.636209     2.075523
H    -1.910157     4.221465     2.939604
H     3.513160     2.754063     0.441512
O     3.269937     2.705861    -0.498727
H     3.606071     1.862338    -0.843129
H     1.536767    -4.722948    -2.206170
O     1.598751    -3.941281    -1.639811
H     2.394571    -3.481390    -1.988612
H    -0.881723    -0.117094    -2.540515
O    -0.245891     0.534058    -2.864195
H     0.008675     1.121084    -2.128817
H     1.737335    -4.701319    -0.136187
O     1.845717    -5.335942     0.607681
H     1.382027    -6.148738     0.314563
H    -1.179292    -3.300374    -2.859973
O    -0.997444    -3.985405    -3.516693
H    -0.877605    -4.830972    -3.043534
H    -2.782432     3.304883     4.688230
O    -1.800991     3.304083     4.658809
H    -1.511425     2.906860     5.498383
H     0.959188     5.035965     4.069911
O     0.012372     5.266224     4.116105
H    -0.459124     4.463291     4.375674
H    -1.690722    -4.675185    -0.345983
O    -0.925151    -5.211260    -0.053578
H    -1.273894    -5.898936     0.523130
H    -3.890464     5.793289    -2.630889
O    -4.237289     4.956759    -2.958687
H    -4.078128     4.918316    -3.926040
H    -2.403977    -3.704676     1.953102
O    -2.422293    -4.607077     2.333087
H    -1.482864    -4.842918     2.478861
H    -4.647196    -3.021374    -2.896101
O    -3.792177    -3.254035    -3.297085
H    -3.463105    -4.046062    -2.827348
H     0.342019     1.379531     4.622079
O     0.848415     2.138966     4.287301
H     0.891935     2.801431     4.991274
H    -4.609019    -5.206474    -1.558149
O    -5.313811    -4.851223    -0.989105
H    -5.104519    -5.201918    -0.102518
H     2.407624    -6.566380    -3.899144
O     2.059708    -6.229245    -3.062955
H     2.457777    -6.830922    -2.393944
H     0.523205    -3.421793    -3.975856
O     1.329238    -3.063447    -4.401893
H     1.008356    -2.687690    -5.248208
H     1.981227    -1.754369     3.011224
O     2.140107    -2.685595     2.797912
H     1.457053    -2.903850     2.129454
H    -2.968290    -1.848546    -3.204181
O    -2.547453    -0.961046    -3.142927
H    -3.203615    -0.318095    -3.466806
H    -3.178725     4.954670     1.054273
O    -3.959003     5.324381     0.594335
H    -4.378798     5.884446     1.296073
H     0.886118     2.248177     2.596824
O     0.991828     2.239236     1.626090
H     1.721076     1.617116     1.468430
H     0.209274     5.635029    -0.770746
O     0.731973     6.295553    -1.280258
H     0.869566     7.098361    -0.727611
H     0.343043     7.029554     2.572672
O    -0.014216     6.644611     1.755220
H     0.652459     5.974267     1.500160
H    -2.468830     0.205904     3.340122
O    -2.690875    -0.606605     3.847327
H    -1.933433    -0.641372     4.473063
H    -0.896227     0.560110     6.030231
O    -0.617162     0.037941     5.259374
H     0.095953    -0.562863     5.552391
H     0.739118    -5.002996     2.017905
O     0.193852    -5.109759     2.820522
H     0.338192    -6.029209     3.096884
H    -2.074993    -8.110487     0.485093
O    -1.757954    -7.616635     1.269009
H    -2.547520    -7.307071     1.720488
H    -0.356041     6.833616    -2.346054
O    -1.101101     7.249351    -2.850761
H    -1.893374     7.124211    -2.290023
H    -1.097752     4.290993     0.561209
O    -0.720875     4.348410    -0.333523
H    -1.424364     4.102557    -0.967848
H    -4.404513     2.734526     3.485841
O    -4.407576     2.909213     4.449606
H    -4.491145     2.027844     4.862318
H     2.039335    -3.577822     4.281583
O     1.973293    -4.046890     5.136310
H     2.475145    -3.505855     5.767379
H     4.717684    -3.201456     0.886893
O     4.561903    -3.131135    -0.081041
H     3.702560    -2.655313    -0.170081
H    -2.687346    -0.779101    -1.349961
O    -3.018887    -0.505619    -0.478293
H    -3.820091     0.016947    -0.690791
H    -1.566297    -0.804337    -4.624772
O    -1.053006    -0.593147    -5.426195
H    -0.349061     0.009623    -5.139817
H     1.840516    -1.746849    -3.350432
O     1.929196    -0.996803    -2.731928
H     1.150261    -0.422063    -2.866490
H     3.685311    -3.121526     2.593180
O     4.645120    -3.349224     2.524353
H     4.701045    -4.308397     2.657811
H     3.452665    -6.119251     3.178748
O     3.812326    -5.921519     2.279146
H     3.076000    -5.580199     1.731800
H    -3.300715     1.566759    -4.188211
O    -4.144927     1.094477    -3.999440
H    -4.367831     1.244041    -3.044491
H    -5.064491     4.118149     0.035975
O    -5.500360     3.250548    -0.065756
H    -6.429892     3.366238    -0.352059
H     6.770986    -1.193318    -1.312658
O     5.994257    -1.043643    -0.767245
H     5.576986    -1.911453    -0.566833
H     4.640256    -3.187431    -2.421317
O     3.773968    -3.020805    -2.842764
H     3.783401    -3.641629    -3.595611
H     4.441088    -2.278237     5.664296
O     4.095534    -2.740828     6.457922
H     4.432569    -3.645556     6.382138
H    -0.763953     6.340079     5.054823
O    -1.364333     6.916953     5.587583
H    -1.377723     7.792026     5.142150
H     4.732717    -0.152460    -1.431743
O     3.965538     0.386653    -1.701785
H     3.275624    -0.216954    -2.030973
H    -0.705886     4.485315    -4.048911
O    -1.488871     5.025274    -4.263480
H    -1.341935     5.894218    -3.843871
H     0.692393     3.174547    -2.657319
O     0.703555     3.546983    -3.567665
H     0.754208     2.780953    -4.149397
H    -5.353985    -5.215755     1.804365
O    -4.654336    -5.810159     1.454612
H    -3.815944    -5.391777     1.727762
H     7.931378    -1.710582    -3.977529
O     7.667441    -1.394839    -3.080781
H     7.180086    -0.552191    -3.242955
H     3.786597    -5.059267    -5.201363
O     4.551510    -4.710041    -4.706326
H     4.928343    -5.411130    -4.143980
H    -3.780367     0.013222     4.928721
O    -4.384680     0.479042     5.556476
H    -5.044941    -0.179021     5.848428
H     3.507137    -5.956493    -0.463961
O     4.376814    -5.708638    -0.790201
H     4.453877    -4.746594    -0.643595
H     5.047636    -0.361765    -4.125377
O     4.516710    -1.077627    -4.513671
H     4.187974    -1.655911    -3.793142
H    -1.129714     1.532827    -3.937386
O    -1.779818     2.149799    -4.329128
H    -1.419211     2.479129    -5.174982
H     4.930090    -6.345105    -2.254594
O     5.270306    -6.674896    -3.116945
H     6.090608    -7.149914    -2.921777
H     8.790472    -5.106659    -2.844055
O     8.094974    -5.523920    -2.290242
H     8.135726    -6.481779    -2.385048
H     2.353146     4.707398     0.452621
O     1.770551     4.691659     1.221271
H     1.414513     3.771086     1.301566
H    -4.402555    -2.643663     4.234694
O    -5.296257    -2.306862     4.026702
H    -5.158444    -1.528091     3.448273
H    -5.818546    -3.220807     1.316808
O    -6.283372    -3.775595     1.985457
H    -6.099830    -3.336088     2.834966
H     1.674253     3.484287     6.866131
O     1.052735     3.995936     6.326900
H     0.266855     4.150205     6.894291
H     5.015701    -2.161281     3.660222
O     5.031847    -1.440007     4.321029
H     4.219311    -0.886213     4.158651
H     2.407233    -5.568990     4.885991
O     2.790433    -6.452969     4.631020
H     2.047343    -7.037108     4.457183
H     2.325710    -4.435005    -6.718703
O     2.174030    -4.952867    -5.911736
H     1.913303    -4.253412    -5.249222
H     6.476918    -4.111107    -0.443516
O     7.228926    -4.511364     0.023927
H     7.740413    -4.936012    -0.692585
H    -1.743305     4.502298     7.684347
O    -0.846248     4.604174     8.073032
H    -0.667714     5.563861     8.094207
H    -5.078161     5.638359    -5.633805
O    -4.468398     4.876347    -5.647843
H    -3.709485     5.089874    -6.211840
H     3.350328    -2.581707    -8.397912
O     3.267402    -3.114710    -7.595963
H     4.141741    -3.072166    -7.162078
H    -0.641292     8.796223    -2.310150
O    -0.522414     9.627324    -1.794677
H     0.237464     9.457297    -1.213493
H     2.071067    -0.903307     5.237271
O     1.496959    -1.428298     5.824119
H     1.585183    -1.078526     6.720209
H     5.262698    -2.053858    -5.648974
O     5.609528    -2.822118    -6.168439
H     5.346021    -3.609351    -5.643030
H     5.711225    -5.201122     4.747272
O     5.185266    -5.113059     5.571087
H     4.465559    -5.747186     5.485991
H    -3.982232     1.150861     6.995252
O    -3.794867     1.631157     7.837565
H    -4.673025     2.016025     8.092702
H    -1.841614     9.588639    -0.786693
O    -2.703849     9.462347    -0.315573
H    -3.314720     10.087725    -0.708917
H    -5.918236     4.644649    -2.975513
O    -6.825006     4.522177    -3.323388
H    -6.730198     3.816788    -3.996693
H     0.142775    -7.089856    -1.095191
O     0.606378    -7.516830    -0.341397
H    -0.076423    -7.715949     0.302176
H    -7.610033     3.747153    -2.014104
O    -7.873000     3.163048    -1.272381
H    -7.726890     2.253068    -1.607170
H     3.969786    -0.871294     7.020566
O     3.976314     0.092808     7.006411
H     4.790247     0.382390     6.577725
H     2.277910     5.776556    -1.184108
O     3.213663     5.486319    -1.064647
H     3.394843     4.943044    -1.854519
H     6.585565    -5.932295     0.741119
O     6.215134    -6.668143     1.273968
H     5.310399    -6.390675     1.499897
H    -3.887615     4.737986     7.752994
O    -3.316932     4.273381     7.098719
H    -3.508981     3.330083     7.212679
H     5.804631    -7.952494     0.211214
O     5.522725    -8.640909    -0.427714
H     4.690172    -8.323073    -0.820837
H    -0.570756     2.057188     7.693030
O    -1.200415     1.987700     6.955316
H    -2.070429     1.846187     7.348603
H    -6.361307    -0.148834     1.045813
O    -6.676686    -0.237250     0.131725
H    -7.594886    -0.510127     0.146383
H    -5.336296    -3.097316    -0.586167
O    -5.087824    -2.390890     0.036472
H    -5.659382    -1.620645    -0.157155
H     4.330454     5.569558     0.325848
O     4.660245     5.674776     1.232027
H     3.962853     6.185854     1.678994
H    -9.003525    -1.793071    -2.274426
O    -8.459226    -1.586965    -1.487083
H    -8.588146    -2.320853    -0.846446
H    -5.480247     3.415358    -5.556892
O    -5.997842     2.705385    -5.141331
H    -5.332135     2.123284    -4.721710
H     3.234910    -0.927029    -5.624608
O     2.381075    -1.053023    -6.092904
H     2.469902    -1.903007    -6.562193
H     8.171595    -1.378288    -5.974272
O     8.179040    -2.240562    -5.514390
H     7.325545    -2.643153    -5.767857
H     7.673595     0.958299    -6.268652
O     7.487521     0.107538    -6.678198
H     6.506544     0.056206    -6.718881
H    -7.831035    -3.723574     0.923299
O    -8.506186    -3.620805     0.235112
H    -8.404002    -4.383059    -0.362433
H    -2.405569     8.719138     1.253257
O    -2.256777     8.134399     2.009647
H    -1.484406     7.582048     1.792829
H    -4.447201     6.423869     3.458631
O    -4.614349     6.845266     2.599239
H    -3.851777     7.432494     2.460488
H     3.436101     3.417851    -3.566347
O     3.280377     4.387085    -3.478584
H     2.315752     4.449353    -3.590195
H    -6.070986    -1.652749    -3.450410
O    -6.155103    -2.228321    -2.663979
H    -6.942631    -1.921479    -2.160427
H     6.470533     1.066695     4.775410
O     6.072089     1.607642     5.474096
H     6.259101     2.525508     5.179810
H     1.410342     1.679816    -5.812761
O     1.213607     1.086870    -5.056644
H     1.579926     0.223507    -5.320194
H    -2.516930     2.988343     10.470644
O    -2.301389     2.080030     10.202331
H    -2.895563     1.875634     9.468393
H     7.640743    -0.486713     3.132310
O     6.888544     0.088178     3.293841
H     6.195830    -0.511417     3.673814
H    -5.612919    -8.088664    -0.676732
O    -4.880492    -8.151925    -0.027077
H    -4.889363    -7.332540     0.491339
H    -5.130208    -0.169669    -4.726093
O    -5.744133    -0.884068    -4.965953
H    -6.582731    -0.445583    -5.169306
H     1.950260    -0.248140    -7.493670
O     1.751611     0.217927    -8.341027
H     2.331947    -0.189220    -8.989645
H     4.941783    -1.447743    -9.263924
O     4.015750    -1.227303    -9.549971
H     4.001930    -1.341464    -10.499623
H     7.576742    -2.553844     4.257352
O     7.727545    -2.594460     3.298617
H     7.237104    -3.387885     3.029069
H     6.747957    -5.888365     2.754972
O     6.804469    -5.208456     3.451523
H     7.678261    -5.289060     3.874973
H    -1.829521     8.941662     3.458828
O    -1.586348     9.250992     4.356803
H    -2.437396     9.383892     4.807958
H    -7.343928     1.509274    -5.279393
O    -7.917837     0.764896    -5.033093
H    -8.820963     1.162587    -4.963217
H     6.992352    -1.123692    -8.358075
O     6.413248    -1.847719    -8.619862
H     6.184118    -2.293580    -7.786400
H    -1.632449     6.186319    -7.047486
O    -2.028436     5.360809    -6.771903
H    -1.784895     5.235934    -5.806229
H    -0.021014     3.334811     9.019607
O     0.176868     2.416653     9.279804
H    -0.623175     2.153197     9.783970
H     6.800022    -2.795851    -2.649164
O     6.269291    -3.540994    -2.310124
H     6.744983    -4.350561    -2.546701
H    -4.025696    -3.121780    -4.934122
O    -4.174630    -3.013495    -5.900408
H    -4.723705    -2.222238    -5.963437
H     1.963111     2.209437     8.475808
O     2.629790     2.319738     7.788097
H     3.054248     1.449801     7.679017
H    -6.864873    -5.240708    -1.390031
O    -7.779037    -5.512618    -1.637903
H    -7.909629    -5.115270    -2.523587
H    -3.838139     5.256745     5.667287
O    -3.804248     6.022255     5.072752
H    -2.871435     6.319257     5.169875
H    -7.850280     0.043849    -1.989967
O    -7.360074     0.766520    -2.404706
H    -7.584365     0.750601    -3.358838
H     5.861489     0.125331     0.449952
O     5.635375     0.849630     1.065830
H     6.141941     0.659601     1.882369
H    -6.229589     3.314972     7.364804
O    -6.104198     2.800909     8.196405
H    -6.702556     2.037955     8.109119
H     2.329994    -8.086858    -0.772070
O     3.000439    -8.082872    -1.475137
H     2.764715    -8.809695    -2.069359
H    -2.694545    -4.002718    -6.181858
O    -1.934535    -4.558951    -5.946620
H    -1.667892    -4.269175    -5.045753
H    -5.649604     3.756781     5.278273
O    -6.302239     4.154817     5.890715
H    -6.140808     5.099162     5.873475
H    -0.971147    -7.152168    -3.097864
O    -0.496933    -6.475211    -2.577871
H     0.402918    -6.404912    -2.969408
H     4.442946     2.031519     5.152009
O     3.501409     2.268192     5.026222
H     3.112950     2.288076     5.906241
H     4.096989     4.677203     6.310164
O     4.179929     5.404133     5.688577
H     3.615735     5.159142     4.916601
H     2.765223     3.623351     3.930664
O     2.586959     4.562333     3.759289
H     2.471192     4.656059     2.791961
H     9.424861     0.207686    -1.016433
O     8.614225     0.369494    -0.530245
H     8.439264    -0.446321    -0.031923
H    -2.134286     5.348989     10.628517
O    -2.855928     4.719932     10.859574
H    -3.079013     4.901229     11.772817
H     8.003807    -3.010073     0.390642
O     8.421727    -2.161165     0.642915
H     8.351890    -2.151343     1.604981
H     5.372682     3.674615     3.544517
O     6.025835     3.944428     4.211907
H     5.609515     4.663685     4.708980
H    -4.237821     5.042604     9.754532
O    -4.867817     5.188647     9.028805
H    -5.478249     4.438853     9.027359
H    -6.961918    -3.527507    -3.487830
O    -7.579502    -4.142163    -3.936164
H    -7.054673    -4.587467    -4.633432
H    -0.007907     6.162589     10.754339
O    -0.872127     6.490764     10.501572
H    -0.753433     6.917544     9.633800
H     2.630057     1.463835    -4.087801
O     3.507610     1.817929    -3.848312
H     3.824611     1.308723    -3.072584
H    -6.978931    -0.216145     7.201835
O    -7.490146     0.562843     7.475945
H    -8.110870     0.741217     6.768391
H    -2.689638    -9.900773    -0.788049
O    -2.629979    -8.959049    -0.949320
H    -3.537838    -8.595622    -0.713247
H    -10.027227     3.014002    -4.945325
O    -10.143269     2.097586    -4.660785
H    -10.363776     2.185545    -3.712506
H    -2.056567    -3.024325     4.631569
O    -2.930742    -3.465971     4.699546
H    -2.920144    -4.087540     3.946375
H    -0.147663    -7.989412     2.536095
O     0.676997    -7.774326     2.985031
H     1.397343    -8.072623     2.402045
H     6.708715    -2.349310     6.445968
O     7.160959    -3.060398     5.987173
H     6.532612    -3.796717     5.950730
H    -5.273522    -1.998480     6.942224
O    -5.948484    -1.503928     6.452831
H    -5.927798    -1.885514     5.545668
H     0.887610     2.983039    -7.112466
O     1.805954     2.652881    -7.162893
H     1.795860     1.903529    -7.786286
H    -3.977183     8.763103     6.625473
O    -3.970464     8.756133     5.668151
H    -4.092967     7.827071     5.404494
H    -2.042573     10.279012    -2.783458
O    -2.943355     10.456886    -3.090014
H    -2.870238     11.087845    -3.805427
H     9.426965    -4.040765     4.118538
O     9.144620    -4.716910     4.742080
H     8.711834    -4.242279     5.462797
H    -0.782429    -5.911220    -5.876512
O    -0.073226    -6.488248    -5.561194
H     0.745451    -5.973993    -5.707845
H     1.831419     8.264281     0.645397
O     1.531345     8.580986    -0.235134
H     2.348278     8.618504    -0.762123
H     3.548215     2.886939    -6.648496
O     4.374248     2.598453    -6.234805
H     4.125740     2.330568    -5.325049
H     3.750009     7.108771    -1.235157
O     3.954942     8.043802    -1.452268
H     4.327975     7.984323    -2.343746
H     4.455862    -0.052836    -7.880944
O     4.827479     0.095878    -7.009622
H     4.644381     1.028998    -6.770554
H     6.054527     1.925313    -0.445718
O     6.622154     2.114812    -1.206744
H     7.447300     1.638892    -1.006445
H     6.732579    -8.443793    -1.528110
O     7.366940    -8.234401    -2.266955
H     7.744049    -9.067778    -2.543883
H    -5.239950    -5.844504    -5.390341
O    -5.856667    -5.174289    -5.709724
H    -5.306327    -4.406686    -5.949331
H     0.659793     7.194002     7.582069
O    -0.243358     7.221261     7.937469
H    -0.795360     7.230914     7.117563
H    -8.848026    -2.889280    -4.115239
O    -9.370208    -2.080615    -3.953910
H    -9.083136    -1.418793    -4.586766
H    -2.365489    -6.021692    -2.109284
O    -3.240357    -5.735353    -2.388029
H    -3.421578    -6.118018    -3.271860
H    -2.927507    -5.950788    -5.384509
O    -3.523326    -6.558033    -4.906275
H    -3.039671    -7.378085    -4.742875
H    -1.340448     3.673628    -6.993733
O    -0.799964     2.919680    -6.717881
H    -1.034456     2.131939    -7.264801
H    -0.143659     0.359715    -8.206511
O    -1.041167     0.594156    -7.927589
H    -1.218728     0.074078    -7.127869
H    -10.393276     4.001225    -2.787242
O    -10.461523     3.225094    -2.215754
H    -9.634524     3.202956    -1.702913
H     4.589653     4.080491     1.733650
O     4.381967     3.160039     2.014576
H     5.101063     2.584889     1.740232
H     6.527160     1.373240    -4.185250
O     6.222329     0.751138    -3.490080
H     6.248171     1.250610    -2.648313
H     9.667727    -2.228942    -0.863087
O     9.947123    -2.020281    -1.763372
H     9.148576    -1.683266    -2.211165
H     10.015723    -3.334774    -3.025079
O     9.751551    -3.990180    -3.698003
H     9.362399    -3.485947    -4.423018
H    -7.646536    -8.616898    -1.649185
O    -6.910205    -8.019993    -1.774084
H    -7.291079    -7.108499    -1.770006
H     4.190797     6.053448    -3.819416
O     4.850115     6.756397    -3.735120
H     5.686723     6.305119    -3.591579
H     0.078549    -8.135382    -5.104911
O     0.251828    -9.102937    -4.995707
H     0.732424    -9.282464    -5.823431
H    -2.269606    -8.714427    -2.678730
O    -2.019901    -8.442121    -3.581705
H    -1.395972    -9.076315    -3.948610
H     2.350249    -10.752951    -3.500690
O     2.206353    -9.812989    -3.386771
H     1.404249    -9.547296    -3.924230
H     6.875176     3.304197    -4.548099
O     6.937166     2.622410    -5.245243
H     6.146181     2.752414    -5.790317
H    -3.565690    -3.710109     7.735482
O    -3.678562    -2.924972     7.201186
H    -3.423069    -3.168085     6.285129
H    -0.581674    -3.410682    -6.697230
O     0.054645    -2.683898    -6.706179
H    -0.425902    -1.904222    -6.372056
H     0.627816     0.486901     8.765440
O     0.639460    -0.230900     8.128286
H    -0.281868    -0.522024     8.038271
H    -5.804665     7.318561    -4.300343
O    -6.303495     6.695727    -4.860610
H    -6.592030     5.967377    -4.266995
H    -4.257362     9.061779    -3.313539
O    -4.791514     8.264771    -3.205984
H    -4.385642     7.789973    -2.462671
H    -9.677423     5.737678    -4.704114
O    -10.209628     4.932593    -4.538977
H    -11.089335     5.129919    -4.862471
H     2.753902     6.533636     6.133326
O     1.793194     6.628462     6.226354
H     1.451965     5.713884     6.127173
H     4.811403     8.540258     0.076484
O     5.124829     8.546153     0.998733
H     5.532975     7.683376     1.135653
H     4.334022    -7.529000    -4.286067
O     3.574872    -7.871924    -4.794963
H     3.285337    -8.657050    -4.284814
H     0.366232     8.663627     4.206457
O     1.046289     8.019329     3.984404
H     1.270230     7.530992     4.802485
H     5.266270     4.170032    -3.142249
O     6.227565     4.140725    -3.086218
H     6.434320     3.564413    -2.333843
H    -2.582344    -1.530853     7.581751
O    -2.074635    -0.735356     7.799745
H    -2.703262    -0.108804     8.168676
H    -9.000194     7.881621    -4.211902
O    -8.932387     7.293290    -4.965373
H    -7.974423     7.130855    -5.095766
H     3.568067    -8.987584     1.166059
O     2.890740    -8.351190     1.400444
H     3.363389    -7.545817     1.683392
H     3.584999     8.170990     1.818347
O     2.795421     7.606048     1.929793
H     2.344783     7.844898     2.752653
N     2.103319    -8.735134    -7.079184
H     1.710894    -7.973823    -7.519193
H     2.768868    -8.344540    -6.483510
