603

H     0.204587     3.050573    -0.668288
O     0.730027     2.385507    -1.163146
H     1.667981     2.515624    -0.887635
H    -0.067614    -1.304488     3.142341
O     0.323936    -0.601012     2.601852
H    -0.156355     0.210282     2.837493
H    -2.393339     2.423128    -0.532615
O    -2.182730     1.949417     0.289605
H    -2.196671     1.002513     0.060363
H    -4.657418     0.542538     2.173546
O    -4.972078    -0.391721     2.182305
H    -4.465366    -0.865131     1.514308
H     0.073579    -0.296372     0.947660
O    -0.122611    -0.056448     0.021376
H     0.214064     0.841764    -0.094814
H    -0.141370    -3.577659     3.759654
O    -0.422872    -2.749997     4.183166
H     0.221614    -2.580862     4.886794
H    -4.884500     2.529134     1.329872
O    -4.244962     2.118515     1.943892
H    -3.401465     2.105064     1.432213
H    -3.244411     3.915753    -2.203502
O    -2.505676     3.319670    -1.973822
H    -2.145251     3.036322    -2.834242
H    -0.106604    -3.791177     0.483936
O     0.230943    -2.974798     0.905936
H    -0.558106    -2.491432     1.218374
H    -2.367903    -1.538812     2.456023
O    -2.176179    -2.000838     1.613547
H    -2.434952    -1.411423     0.885975
H     2.087909    -1.417747    -1.127071
O     2.319276    -1.674244    -0.210481
H     1.530350    -2.104993     0.170516
H    -1.388515     1.828891     1.914225
O    -1.480247     1.427225     2.788451
H    -1.468782     2.136725     3.456498
H     0.227539    -2.680054    -1.584243
O    -0.529483    -2.070103    -1.637236
H    -0.352837    -1.345796    -1.000256
H    -3.419206    -2.916071    -0.412497
O    -2.699711    -3.404725    -0.833459
H    -1.991099    -2.771234    -1.048545
H     2.777186     0.138530     2.935631
O     2.875693    -0.047964     3.896621
H     2.963821     0.843404     4.305341
H    -3.533996     6.390103    -0.524651
O    -3.295955     7.056381    -1.221431
H    -3.157069     7.899727    -0.747176
H     3.908285     0.603874     1.191427
O     2.958120     0.419100     1.305244
H     2.723493    -0.331168     0.722027
H    -5.770937     0.851869    -1.613750
O    -4.861493     1.180676    -1.484250
H    -4.975345     2.006708    -0.969494
H    -1.218643     5.400712     2.228224
O    -1.841441     4.652451     2.107357
H    -1.919739     4.229929     2.967933
H     3.495805     2.785211     0.439641
O     3.249982     2.746068    -0.500214
H     3.584600     1.905604    -0.853734
H     1.515712    -4.667720    -2.271943
O     1.577947    -3.893159    -1.694912
H     2.371309    -3.428074    -2.043171
H    -0.907927    -0.060256    -2.553544
O    -0.274199     0.594688    -2.873453
H    -0.016929     1.174816    -2.133765
H     1.720597    -4.664913    -0.199941
O     1.828367    -5.305107     0.539903
H     1.366866    -6.115869     0.239753
H    -1.204494    -3.240067    -2.899327
O    -1.028070    -3.920453    -3.562340
H    -0.900712    -4.768956    -3.096680
H    -2.786414     3.297802     4.710960
O    -1.805087     3.297738     4.678587
H    -1.512691     2.892947     5.513515
H     0.952985     5.035211     4.095860
O     0.006301     5.264933     4.147687
H    -0.464189     4.459471     4.401131
H    -1.708605    -4.637170    -0.397657
O    -0.942686    -5.177510    -0.113781
H    -1.289784    -5.867503     0.460992
H    -3.917916     5.850074    -2.582824
O    -4.266271     5.016558    -2.916536
H    -4.109873     4.986153    -3.884694
H    -2.415104    -3.687450     1.912932
O    -2.431866    -4.593331     2.284830
H    -1.491782    -4.829690     2.425889
H    -4.674123    -2.962488    -2.922343
O    -3.820507    -3.191531    -3.328119
H    -3.488398    -3.986381    -2.865867
H     0.338299     1.373794     4.617976
O     0.843337     2.136394     4.288461
H     0.889049     2.792573     4.998118
H    -4.630544    -5.158442    -1.604039
O    -5.334109    -4.809251    -1.029807
H    -5.121423    -5.166866    -0.146877
H     2.357705    -6.442388    -4.067859
O     2.019613    -6.118336    -3.213014
H     2.453876    -6.694390    -2.551766
H     0.490891    -3.344573    -4.022905
O     1.293718    -2.974063    -4.442486
H     0.974929    -2.600116    -5.290523
H     1.973143    -1.745326     2.974011
O     2.131179    -2.674853     2.752834
H     1.446655    -2.887242     2.083984
H    -2.996163    -1.786338    -3.225594
O    -2.576422    -0.899112    -3.155404
H    -3.232676    -0.253727    -3.474059
H    -3.194642     4.979315     1.092866
O    -3.976527     5.352910     0.638854
H    -4.394164     5.906636     1.346766
H     0.876040     2.260366     2.598815
O     0.978529     2.260234     1.627758
H     1.707167     1.639484     1.461917
H     0.187270     5.676512    -0.737052
O     0.708340     6.341838    -1.241998
H     0.847221     7.139648    -0.682638
H     0.331730     7.041619     2.618361
O    -0.028296     6.663815     1.798830
H     0.637659     5.995938     1.535422
H    -2.476318     0.210918     3.334667
O    -2.696811    -0.605865     3.835739
H    -1.937110    -0.646137     4.458397
H    -0.895105     0.541678     6.022896
O    -0.618627     0.026271     5.246630
H     0.095831    -0.576757     5.531771
H     0.728303    -4.985197     1.956266
O     0.185376    -5.099554     2.759590
H     0.331642    -6.021036     3.027826
H    -2.090463    -8.079197     0.406507
O    -1.770343    -7.594102     1.194436
H    -2.558079    -7.286396     1.650419
H    -0.383052     6.888996    -2.299753
O    -1.129727     7.309642    -2.797928
H    -1.920272     7.178544    -2.236180
H    -1.115440     4.320472     0.587263
O    -0.741284     4.386429    -0.307951
H    -1.446313     4.145370    -0.942536
H    -4.412002     2.737683     3.508718
O    -4.412355     2.903861     4.474065
H    -4.494185     2.018822     4.879141
H     2.035583    -3.580019     4.228322
O     1.972150    -4.056398     5.079274
H     2.476402    -3.520943     5.713179
H     4.703338    -3.171643     0.828842
O     4.544562    -3.091998    -0.137678
H     3.684384    -2.616573    -0.220318
H    -2.709603    -0.732794    -1.362655
O    -3.038812    -0.467587    -0.487364
H    -3.840272     0.057212    -0.693169
H    -1.598420    -0.728508    -4.640200
O    -1.091001    -0.507917    -5.442376
H    -0.382917     0.089054    -5.154066
H     1.812782    -1.680054    -3.385820
O     1.903285    -0.936010    -2.758881
H     1.124733    -0.359953    -2.888327
H     3.676024    -3.108765     2.539064
O     4.635726    -3.335383     2.466109
H     4.692277    -4.295912     2.589156
H     3.445425    -6.111216     3.098281
O     3.802043    -5.905783     2.199429
H     3.064483    -5.559450     1.656948
H    -3.331904     1.637291    -4.179471
O    -4.176070     1.163879    -3.991963
H    -4.395290     1.304900    -3.035074
H    -5.083369     4.151280     0.073279
O    -5.519748     3.284612    -0.033984
H    -6.449951     3.402731    -0.316966
H     6.748446    -1.145423    -1.360556
O     5.974750    -0.999874    -0.809887
H     5.557133    -1.869330    -0.616576
H     4.613784    -3.132169    -2.481076
O     3.746699    -2.960477    -2.898199
H     3.751625    -3.575902    -3.656878
H     4.441367    -2.291943     5.614752
O     4.098723    -2.761696     6.405499
H     4.435627    -3.665662     6.320250
H    -0.767394     6.330066     5.097968
O    -1.366158     6.902183     5.637724
H    -1.381185     7.781063     5.199904
H     4.709821    -0.103997    -1.463276
O     3.941995     0.437893    -1.725505
H     3.250914    -0.162612    -2.058887
H    -0.738234     4.555040    -4.022409
O    -1.521990     5.097131    -4.228771
H    -1.372982     5.962433    -3.802786
H     0.664945     3.232541    -2.646970
O     0.673223     3.613387    -3.553672
H     0.722559     2.852705    -4.142674
H    -5.364810    -5.197860     1.760234
O    -4.666217    -5.789618     1.403721
H    -3.827096    -5.372737     1.677152
H     7.901164    -1.638305    -4.032495
O     7.640873    -1.329822    -3.132790
H     7.151513    -0.486439    -3.285750
H     3.728604    -5.022262    -5.311669
O     4.492582    -4.650756    -4.830266
H     4.875562    -5.363144    -4.285289
H    -3.782524     0.004096     4.925669
O    -4.385041     0.463989     5.559661
H    -5.044261    -0.196822     5.847538
H     3.488291    -5.916561    -0.544068
O     4.360830    -5.665847    -0.859744
H     4.434338    -4.704002    -0.711448
H     5.016484    -0.290806    -4.157552
O     4.486693    -1.003401    -4.552697
H     4.157270    -1.588996    -3.837984
H    -1.161495     1.601935    -3.935625
O    -1.812800     2.223086    -4.318756
H    -1.455377     2.558661    -5.163816
H     4.911781    -6.284756    -2.339644
O     5.247722    -6.604060    -3.206258
H     6.065357    -7.085575    -3.019699
H     8.765512    -5.044783    -2.931149
O     8.073949    -5.465878    -2.376141
H     8.110629    -6.422873    -2.481140
H     2.335270     4.738919     0.471498
O     1.755377     4.716258     1.242052
H     1.399721     3.794906     1.315168
H    -4.406487    -2.646841     4.210163
O    -5.300979    -2.308524     4.008077
H    -5.165157    -1.524703     3.435927
H    -5.831705    -3.198999     1.291701
O    -6.293991    -3.760014     1.957119
H    -6.107828    -3.327636     2.809726
H     1.677324     3.459103     6.876238
O     1.053913     3.975390     6.343668
H     0.269777     4.124284     6.914803
H     5.009517    -2.157421     3.610332
O     5.027657    -1.441878     4.277409
H     4.214581    -0.886832     4.122174
H     2.405670    -5.576073     4.814294
O     2.788102    -6.457973     4.551070
H     2.044563    -7.040400     4.373596
H     2.284338    -4.468077    -6.809183
O     2.118244    -4.960285    -5.994363
H     1.848995    -4.271487    -5.338474
H     6.458268    -4.071023    -0.514629
O     7.212416    -4.473714    -0.052626
H     7.721383    -4.892458    -0.774416
H    -1.737914     4.468988     7.714218
O    -0.839816     4.567708     8.101292
H    -0.661293     5.527206     8.129899
H    -5.115368     5.721508    -5.583218
O    -4.505948     4.959591    -5.605316
H    -3.748485     5.177842    -6.169632
H     3.271509    -2.505536    -8.398882
O     3.190598    -3.007915    -7.569965
H     4.074140    -2.957069    -7.162040
H    -0.669092     8.850978    -2.245390
O    -0.548623     9.677689    -1.723043
H     0.213253     9.502643    -1.145999
H     2.069773    -0.913981     5.207084
O     1.497730    -1.443987     5.791513
H     1.589208    -1.102015     6.690257
H     5.226855    -1.972286    -5.697120
O     5.580482    -2.734727    -6.220875
H     5.302497    -3.528480    -5.710209
H     5.709244    -5.206120     4.668247
O     5.185988    -5.126015     5.494720
H     4.465896    -5.759142     5.405556
H    -3.978224     1.123205     7.002735
O    -3.788413     1.595929     7.848836
H    -4.665806     1.978383     8.110008
H    -1.864295     9.629606    -0.711351
O    -2.724966     9.499322    -0.238346
H    -3.337268     10.127573    -0.624839
H    -5.946801     4.704203    -2.930822
O    -6.854756     4.584299    -3.276612
H    -6.761600     3.884974    -3.956547
H     0.121342    -7.043659    -1.176713
O     0.585672    -7.481581    -0.430137
H    -0.094044    -7.680747     0.216855
H    -7.635135     3.797806    -1.971977
O    -7.896121     3.207218    -1.234619
H    -7.750484     2.300262    -1.577748
H     3.974252    -0.897073     6.984663
O     3.980722     0.067127     6.979787
H     4.792820     0.360796     6.550372
H     2.254753     5.822324    -1.155553
O     3.190952     5.531425    -1.041484
H     3.369614     4.995036    -1.836770
H     6.571584    -5.901996     0.652750
O     6.204086    -6.641624     1.182482
H     5.298650    -6.367576     1.409688
H    -3.882173     4.703525     7.791730
O    -3.313403     4.244822     7.131718
H    -3.504877     3.300505     7.237828
H     5.789286    -7.917285     0.108666
O     5.504698    -8.602019    -0.532907
H     4.674438    -8.277586    -0.925916
H    -0.564726     2.024187     7.697651
O    -1.196801     1.961140     6.961465
H    -2.065500     1.815857     7.356235
H    -6.375751    -0.124478     1.049679
O    -6.694405    -0.205173     0.136010
H    -7.612570    -0.478052     0.151482
H    -5.355658    -3.057740    -0.612094
O    -5.106028    -2.357706     0.017153
H    -5.677508    -1.585320    -0.168099
H     4.312113     5.602439     0.345906
O     4.644860     5.700072     1.251892
H     3.948572     6.206739     1.705515
H    -9.028540    -1.740244    -2.276414
O    -8.482362    -1.540712    -1.488685
H    -8.608632    -2.280414    -0.854388
H    -5.516999     3.497324    -5.524249
O    -6.033192     2.783943    -5.112733
H    -5.365653     2.198231    -4.700889
H     3.198006    -0.842995    -5.657644
O     2.343281    -0.962262    -6.124295
H     2.430264    -1.808957    -6.603095
H     8.133520    -1.288140    -6.025250
O     8.146040    -2.156302    -5.577089
H     7.288457    -2.556105    -5.823828
H     7.635241     1.048167    -6.301596
O     7.446391     0.201691    -6.718823
H     6.464375     0.154747    -6.755772
H    -7.844986    -3.698568     0.900431
O    -8.522848    -3.590517     0.215703
H    -8.421909    -4.347098    -0.389122
H    -2.421588     8.742090     1.322654
O    -2.270208     8.150920     2.073531
H    -1.498554     7.600496     1.849294
H    -4.455555     6.427104     3.514236
O    -4.625750     6.856225     2.659300
H    -3.863566     7.444546     2.523005
H     3.405618     3.484925    -3.562016
O     3.250223     4.453426    -3.464565
H     2.285294     4.516329    -3.573441
H    -6.099180    -1.589250    -3.460500
O    -6.181838    -2.171862    -2.678918
H    -6.967199    -1.868477    -2.170184
H     6.467103     1.061153     4.749100
O     6.071080     1.595967     5.453898
H     6.256768     2.516380     5.166763
H     1.373130     1.765365    -5.817570
O     1.180620     1.166382    -5.064941
H     1.544793     0.304859    -5.339220
H    -2.502421     2.930424     10.489421
O    -2.287703     2.024437     10.212733
H    -2.883882     1.826412     9.478661
H     7.632541    -0.477461     3.088507
O     6.880945     0.095885     3.258151
H     6.189432    -0.507364     3.634479
H    -5.631367    -8.048130    -0.745283
O    -4.897185    -8.117821    -0.098182
H    -4.903560    -7.302644     0.427062
H    -5.162889    -0.094883    -4.726140
O    -5.778130    -0.807178    -4.969073
H    -6.616918    -0.366670    -5.166975
H     1.907012    -0.147524    -7.519481
O     1.706661     0.331653    -8.358512
H     2.276757    -0.073989    -9.018193
H     4.797973    -1.224326    -9.278551
O     3.881366    -1.155140    -9.618009
H     3.959292    -1.567994    -10.485337
H     7.572177    -2.554622     4.195881
O     7.720754    -2.586815     3.236506
H     7.229150    -3.377497     2.960972
H     6.738856    -5.874849     2.666162
O     6.798173    -5.202108     3.369793
H     7.673571    -5.286913     3.788719
H    -1.838525     8.945360     3.528196
O    -1.592798     9.246919     4.428163
H    -2.442550     9.375526     4.882965
H    -7.378934     1.588679    -5.257348
O    -7.952304     0.842245    -5.015844
H    -8.855089     1.239340    -4.939684
H     7.024497    -1.034287    -8.295359
O     6.427469    -1.740174    -8.581376
H     6.168361    -2.169353    -7.743293
H    -1.673819     6.282596    -7.002534
O    -2.071062     5.455911    -6.732372
H    -1.822928     5.321204    -5.769368
H    -0.011218     3.290198     9.033628
O     0.187724     2.369913     9.285401
H    -0.610755     2.101812     9.789562
H     6.774315    -2.737159    -2.710331
O     6.245081    -3.484140    -2.373956
H     6.715865    -4.293038    -2.622235
H    -4.056044    -3.045481    -4.964813
O    -4.209337    -2.929579    -5.929298
H    -4.758095    -2.137451    -5.983399
H     1.971481     2.169946     8.473729
O     2.636015     2.286698     7.785028
H     3.060363     1.417907     7.666670
H    -6.885988    -5.195199    -1.429227
O    -7.800567    -5.465979    -1.677087
H    -7.933912    -5.060092    -2.558603
H    -3.839283     5.240634     5.710492
O    -3.807565     6.011583     5.122935
H    -2.874424     6.307767     5.219418
H    -7.874772     0.094451    -1.979566
O    -7.386211     0.820962    -2.389393
H    -7.613073     0.813269    -3.343045
H     5.844433     0.158030     0.417253
O     5.620394     0.876828     1.040421
H     6.129636     0.679520     1.853471
H    -6.224909     3.283424     7.398477
O    -6.096966     2.762097     8.225190
H    -6.695328     1.999739     8.132938
H     2.305742    -8.048495    -0.875907
O     2.983990    -8.031964    -1.570899
H     2.761030    -8.743766    -2.187399
H    -2.719341    -3.926224    -6.220348
O    -1.965684    -4.492540    -5.988903
H    -1.690468    -4.202801    -5.090920
H    -5.651794     3.743583     5.314115
O    -6.302466     4.136103     5.932246
H    -6.141239     5.080596     5.922661
H    -0.990118    -7.087240    -3.196461
O    -0.519517    -6.418968    -2.664658
H     0.387749    -6.345332    -3.045013
H     4.440792     2.022340     5.140384
O     3.498823     2.260004     5.019911
H     3.113225     2.271818     5.901306
H     4.097940     4.657550     6.322767
O     4.178381     5.390219     5.707623
H     3.612047     5.151703     4.935124
H     2.758893     3.624457     3.938464
O     2.579666     4.564854     3.776074
H     2.460900     4.667027     2.809913
H     9.402991     0.253237    -1.059881
O     8.595058     0.411830    -0.568194
H     8.420566    -0.408873    -0.077694
H    -2.119670     5.289744     10.666840
O    -2.840405     4.658500     10.894805
H    -3.060524     4.831791     11.810312
H     7.987259    -2.976104     0.323115
O     8.406722    -2.129691     0.581856
H     8.339133    -2.128397     1.544100
H     5.365386     3.679521     3.544370
O     6.020254     3.943727     4.212452
H     5.605136     4.658621     4.716718
H    -4.226004     4.990314     9.797015
O    -4.858553     5.142698     9.074832
H    -5.468584     4.392603     9.068500
H    -6.990517    -3.463160    -3.511626
O    -7.609009    -4.074813    -3.963074
H    -7.086001    -4.512719    -4.666489
H     0.006784     6.102523     10.793042
O    -0.858245     6.433032     10.546145
H    -0.742451     6.867173     9.681609
H     2.598646     1.535269    -4.099816
O     3.476478     1.888183    -3.858062
H     3.795643     1.371406    -3.088390
H    -6.973926    -0.246338     7.206763
O    -7.484722     0.529810     7.489626
H    -8.107298     0.714696     6.785371
H    -2.711374    -9.859565    -0.876048
O    -2.649972    -8.917153    -1.031956
H    -3.557072    -8.553609    -0.791203
H    -10.061629     3.089870    -4.901523
O    -10.177158     2.171070    -4.624565
H    -10.394105     2.250859    -3.674746
H    -2.059136    -3.030651     4.596327
O    -2.933030    -3.473168     4.663234
H    -2.924650    -4.087757     3.904336
H    -0.155583    -7.976080     2.450255
O     0.669838    -7.765845     2.900058
H     1.389407    -8.057658     2.312824
H     6.711012    -2.369542     6.388734
O     7.162508    -3.076595     5.923015
H     6.534065    -3.812554     5.881129
H    -5.269015    -2.025882     6.926009
O    -5.945931    -1.527486     6.443273
H    -5.927621    -1.900706     5.532547
H     0.847479     3.079923    -7.104789
O     1.765566     2.750545    -7.159184
H     1.754549     2.005981    -7.789346
H    -3.976010     8.738183     6.700144
O    -3.972796     8.739920     5.742780
H    -4.095575     7.813184     5.471128
H    -2.071972     10.337388    -2.701381
O    -2.973772     10.518352    -3.003123
H    -2.902821     11.154735    -3.713946
H     9.422262    -4.039461     4.037634
O     9.143501    -4.720913     4.657007
H     8.711733    -4.252650     5.382481
H    -0.705392    -5.958918    -5.868507
O    -0.000862    -6.524602    -5.535757
H     0.833712    -6.060137    -5.751696
H     1.813544     8.293720     0.697172
O     1.510616     8.618528    -0.179380
H     2.325726     8.660310    -0.708881
H     3.508914     2.978766    -6.650372
O     4.336299     2.688591    -6.240060
H     4.089257     2.413078    -5.332232
H     3.726175     7.155237    -1.199471
O     3.930447     8.092235    -1.408839
H     4.300457     8.040538    -2.302087
H     4.401997     0.061122    -7.909674
O     4.791035     0.195904    -7.043996
H     4.606213     1.124720    -6.788901
H     6.034273     1.965616    -0.463275
O     6.600194     2.162533    -1.223683
H     7.425642     1.684399    -1.030034
H     6.713141    -8.392561    -1.635333
O     7.349875    -8.178033    -2.370377
H     7.718639    -9.010724    -2.660094
H    -5.273584    -5.761442    -5.440235
O    -5.892104    -5.089582    -5.752637
H    -5.342422    -4.319272    -5.986109
H     0.664118     7.161979     7.628025
O    -0.237906     7.186067     7.986561
H    -0.792451     7.202704     7.168434
H    -8.878135    -2.820130    -4.127443
O    -9.400659    -2.013489    -3.957327
H    -9.115393    -1.345483    -4.584515
H    -2.385851    -5.968003    -2.173429
O    -3.264441    -5.682843    -2.441740
H    -3.449623    -6.053984    -3.329498
H    -2.959078    -5.867384    -5.439563
O    -3.557798    -6.480676    -4.970103
H    -3.074067    -7.300530    -4.806966
H    -1.382854     3.768009    -6.973099
O    -0.841272     3.013033    -6.703069
H    -1.073960     2.229190    -7.257199
H    -0.186127     0.468370    -8.218533
O    -1.082788     0.700676    -7.933596
H    -1.257841     0.171852    -7.139281
H    -10.421033     4.058008    -2.733818
O    -10.487502     3.277131    -2.168604
H    -9.658457     3.250407    -1.659204
H     4.576334     4.101125     1.739831
O     4.370175     3.178505     2.014583
H     5.087591     2.605481     1.731453
H     6.495164     1.447492    -4.208473
O     6.194191     0.818747    -3.517673
H     6.221457     1.310921    -2.671693
H     9.647095    -2.184102    -0.928778
O     9.923914    -1.966848    -1.827879
H     9.123600    -1.626404    -2.269953
H     9.988361    -3.270072    -3.101012
O     9.724661    -3.918763    -3.780666
H     9.330189    -3.407818    -4.497979
H    -7.669340    -8.567863    -1.712922
O    -6.932591    -7.971409    -1.837644
H    -7.312288    -7.059240    -1.824884
H     4.158918     6.123056    -3.794368
O     4.818465     6.825299    -3.705586
H     5.655540     6.372667    -3.569263
H     0.130746    -8.131668    -5.251334
O     0.157109    -9.115164    -5.123077
H     0.308456    -9.475130    -5.997069
H    -2.301745    -8.650743    -2.756285
O    -2.067316    -8.382768    -3.664424
H    -1.418907    -8.998281    -4.024999
H     2.219686    -10.780277    -3.538906
O     2.172299    -9.825877    -3.511530
H     1.386877    -9.554525    -4.037656
H     6.841393     3.380437    -4.556645
O     6.901704     2.704872    -5.259991
H     6.108374     2.839164    -5.800878
H    -3.557781    -3.744066     7.698775
O    -3.673168    -2.954360     7.171805
H    -3.420324    -3.189085     6.252797
H    -0.613953    -3.319375    -6.742681
O     0.015228    -2.587210    -6.742947
H    -0.469284    -1.813461    -6.401764
H     0.637369     0.445126     8.752365
O     0.647384    -0.267332     8.109217
H    -0.274126    -0.557844     8.019214
H    -5.838400     7.389600    -4.231825
O    -6.339391     6.771968    -4.795887
H    -6.625065     6.037807    -4.208094
H    -4.288081     9.124407    -3.234976
O    -4.822204     8.326754    -3.132239
H    -4.413322     7.845049    -2.395033
H    -9.711625     5.811435    -4.637376
O    -10.243383     5.004956    -4.477504
H    -11.123911     5.204893    -4.797104
H     2.753726     6.514975     6.166807
O     1.793325     6.608863     6.264095
H     1.451910     5.695185     6.157517
H     4.791343     8.575414     0.121231
O     5.108040     8.573472     1.042421
H     5.516403     7.709427     1.170474
H     4.173195    -7.381924    -4.369343
O     3.417420    -7.666597    -4.914780
H     3.137320    -8.509155    -4.542127
H     0.359411     8.661279     4.266486
O     1.039172     8.019383     4.036736
H     1.265632     7.523702     4.849670
H     5.237151     4.233552    -3.137841
O     6.198660     4.204249    -3.084796
H     6.407679     3.621491    -2.338044
H    -2.575958    -1.563153     7.561077
O    -2.067718    -0.769658     7.784989
H    -2.695468    -0.146309     8.160779
H    -9.033468     7.951000    -4.128473
O    -8.968124     7.369480    -4.887427
H    -8.010475     7.208147    -5.022125
H     3.557373    -8.959110     1.056217
O     2.878868    -8.329886     1.306397
H     3.350972    -7.524482     1.590351
H     3.570820     8.190586     1.863668
O     2.781746     7.624518     1.972842
H     2.333728     7.856059     2.799185
N     5.528112    -3.026182    -11.040649
H     6.125928    -2.784069    -10.316732
H     6.104410    -3.249431    -11.775974
