27

H    -3.992828     5.714408    -2.473606
O    -4.325725     4.916119    -2.889688
H    -4.122059     4.937872    -3.860424
H    -0.342918     6.857871    -2.297979
O    -1.096310     7.264469    -2.809983
H    -1.871590     7.119067    -2.228458
H    -0.614763     4.476497    -4.074148
O    -1.416288     4.996709    -4.293155
H    -1.278022     5.849134    -3.842059
H    -5.070735     5.562358    -5.654498
O    -4.484770     4.794701    -5.557594
H    -3.694066     4.936308    -6.134932
H    -2.293354     6.207082    -6.979324
O    -2.191040     5.271708    -6.772891
H    -1.776076     5.248340    -5.863049
H    -1.919334     10.362401    -2.776950
O    -2.797910     10.587738    -3.133710
H    -2.609859     10.977880    -3.991891
H    -5.967472     7.275372    -4.293146
O    -6.430516     6.641602    -4.861313
H    -6.705519     5.902079    -4.252656
H    -3.924400     9.128733    -3.396465
O    -4.389660     8.273021    -3.499910
H    -4.094436     7.781490    -2.714859
N    -3.479580     7.871568    -6.259154
H    -3.682123     7.908932    -5.307336
H    -4.275141     8.206158    -6.683276
