12

H    -10.053931     2.897912    -4.974813
O    -10.316412     2.037993    -4.606796
H    -10.296643     2.239263    -3.646230
H    -10.062235     4.130065    -2.813934
O    -10.351627     3.432404    -2.192779
H    -9.599148     3.342217    -1.573796
H    -9.697636     5.790838    -4.740565
O    -10.043957     4.892539    -4.563023
H    -11.014860     4.961030    -4.567129
N    -12.693559     3.964542    -4.022184
H    -12.416496     3.142285    -4.451702
H    -12.391010     3.832951    -3.112799
