18

H    -2.183044    -7.988492     0.466486
O    -1.786463    -7.531132     1.238560
H    -2.514732    -7.190390     1.761427
H    -5.970261    -7.944683    -0.512399
O    -5.102692    -8.006647    -0.040802
H    -5.063423    -7.238878     0.558774
H    -2.951818    -9.628885    -0.724468
O    -2.710480    -8.760787    -1.096759
H    -3.570059    -8.291909    -1.026988
H    -8.171641    -8.320704    -0.870868
O    -7.442399    -7.986248    -1.400632
H    -7.685570    -7.036425    -1.558630
H    -2.264026    -8.735698    -2.869491
O    -2.051373    -8.397609    -3.759723
H    -1.370319    -8.954976    -4.163308
N    -4.061770    -10.559716     0.513752
H    -4.620793    -11.295722     0.250629
H    -4.649352    -9.778205     0.505256
