21

H     3.455238    -6.066395     3.153599
O     3.806141    -5.864132     2.247550
H     3.052633    -5.521501     1.717981
H     6.664327    -5.794658     0.713868
O     6.301034    -6.583032     1.190889
H     5.391086    -6.311636     1.418995
H     5.921129    -7.792815     0.031077
O     5.687740    -8.562488    -0.547170
H     4.825395    -8.319498    -0.946847
H     2.436173    -8.110147    -0.836077
O     3.060220    -8.085170    -1.583601
H     2.749058    -8.761084    -2.210246
H     6.918122    -8.469002    -1.770736
O     7.502133    -8.156325    -2.500625
H     7.677448    -8.901709    -3.075824
H     3.308407    -9.072575     1.500926
O     2.738361    -8.297959     1.317828
H     3.261643    -7.539137     1.631286
N     4.686140    -10.262542     1.389540
H     5.294942    -10.270089     2.133693
H     5.153657    -9.759335     0.683296
