30
Coordinates from ORCA-job grain_mol_opt.QMRegion
  H   -4.02207969411874      5.82161372740355     -2.40787540794484
  O   -4.31726179228392      5.01013871038874     -2.83705577263620
  H   -4.10546595450639      5.07763729973247     -3.78914877216886
  H   -0.64153105685986      4.53422749945795     -4.01162810609326
  O   -1.43156144111220      5.08905896038390     -4.19106780200292
  H   -1.28092384925897      5.91140057320409     -3.68467263910665
  H   -1.16329985433396      1.51627811553849     -3.94701702487180
  O   -1.80637684212613      2.15758335059038     -4.31324186949075
  H   -1.54134329903309      2.43387639015816     -5.21281524096435
  H   -5.21859559294893      5.78965992812756     -5.53693567333657
  O   -4.50535003695206      5.12314086031202     -5.65428649433179
  H   -3.73359654080501      5.63757407683395     -5.95653853766137
  H   -5.49886697472049      3.39890302298200     -5.60994905267649
  O   -6.00254486192377      2.75013596135744     -5.10036213208178
  H   -5.32297354398594      2.17384102063450     -4.67900107850458
  H   -1.97105213237467      7.27614558954681     -6.11202636400165
  O   -2.10337123422601      6.35085391713018     -6.33110413295002
  H   -1.69221168180241      5.82915199685276     -5.57172869717710
  H   0.75307816432135      2.98394829545733     -7.17118272623777
  O   1.67657714022647      2.65895948648763     -7.16268311162263
  H   1.69027835992264      1.89592113147083     -7.77180841592920
  H   -1.64218082044102      3.45125536872348     -7.40356957523059
  O   -1.05784391039085      2.86781049085657     -6.87128135192863
  H   -1.11142263855611      1.98385645691483     -7.31901481977065
  H   -0.11779791230195      0.24946016961841     -8.19287407172826
  O   -1.04327434577253      0.42371192967390     -7.94981353578497
  H   -1.17394474530055     -0.05299948810748     -7.11015629174113
  O   -2.60194015048328      4.59173212616866     -8.37552695188014
  H   -2.37401313452570      5.38298615947498     -7.85173689886150
  H   -3.53939267734555      4.46524788272224     -8.19162627386469
