27
Coordinates from ORCA-job grain_mol_opt.QMRegion
  H   -4.00929503321302      5.73655417735003     -2.43370595271376
  O   -4.34260158563600      4.93969987791761     -2.85220471357337
  H   -4.14092911937139      4.96532085777743     -3.82326498273758
  H   -0.35947658281620      6.88098412042284     -2.26082226320232
  O   -1.11407959495176      7.28921213257544     -2.76973717289003
  H   -1.88812104257139      7.14125783549976     -2.18720491546854
  H   -0.63380709606127      4.50636198733296     -4.04570201960889
  O   -1.43600955534095      5.02706114736924     -4.26103842831536
  H   -1.29724613967150      5.87773160858878     -3.80679542105436
  H   -5.09332775285637      5.59629335026913     -5.61308343858305
  O   -4.50682913282648      4.82854372059202     -5.52025624893121
  H   -3.71725175092758      4.97282662157924     -6.09849714500617
  H   -2.31931174295074      6.24780168057524     -6.94042922867711
  O   -2.21578154178210      5.31164198727076     -6.73814145002091
  H   -1.79897625092629      5.28485458735515     -5.82924612707673
  H   -1.93833155161940     10.38666178123495     -2.72305107976248
  O   -2.81767856692413     10.61291968404107     -3.07732614173681
  H   -2.63139256249623     11.00643782739702     -3.93434928555188
  H   -5.98811433698354      7.30367964090581     -4.24319379316610
  O   -6.45206789097989      6.67192321569552     -4.81286010686182
  H   -6.72550025803280      5.92991399378599     -4.20653186731078
  H   -3.94404684922026      9.15442337299688     -3.34344925471888
  O   -4.40913737692514      8.29890961952633     -3.44926687757182
  H   -4.11213587877674      7.80450936392617     -2.66668575598797
  O   -3.50449101172737      7.90847975555954     -6.21192027683278
  H   -3.70513252255700      7.94216169799948     -5.25956198222336
  H   -4.30099691698934      8.24444659237304     -6.63316945081388
