21
Coordinates from ORCA-job grain_mol_opt.QMRegion
  H   -3.19050906795665      4.94948163064312      1.06532413866046
  O   -3.97800204020540      5.31527532923507      0.61211259130230
  H   -4.40110664434158      5.83905132616192      1.32881759398681
  H   -4.36385901419082      2.63319879282145      3.48990573018398
  O   -4.40876727544553      2.82853816120947      4.45254054341957
  H   -4.44255023808760      1.94206269711301      4.87146388578784
  H   -4.21306114707183      6.26240954216981      3.46561719922531
  O   -4.62010821015518      6.78166452219275      2.73094953485703
  H   -3.91982423772749      7.43511907705156      2.53821902320274
  H   -3.60254670211641      5.08286496285932      5.62059443235047
  O   -3.50956921330289      5.77484815807114      4.94091803348662
  H   -2.63244623577071      6.16570097916075      5.15668431783034
  H   -5.78155025242647      3.66516265644753      5.27082475486496
  O   -6.44790092215035      4.04553189121126      5.87596982905076
  H   -6.32422769543628      5.00243449734802      5.81609845081868
  H   -4.95660833696982      8.77921453523650      5.15906745763306
  O   -4.06103080182113      8.65365512318057      5.48558291804390
  H   -3.98316855223028      7.68855394458215      5.53888731779567
  O   -6.63656094861528      6.89896409704441      4.78198267878184
  H   -7.52845707103882      6.69582221131537      4.48374405055193
  H   -6.10197432226917      6.92744577986623      3.96791815650933
