603

H     0.192811     3.014461    -0.687267
O     0.719334     2.348537    -1.179801
H     1.656780     2.479286    -0.902033
H    -0.087368    -1.334116     3.131019
O     0.303638    -0.631630     2.588813
H    -0.176079     0.180275     2.823199
H    -2.405544     2.386310    -0.557291
O    -2.198194     1.914218     0.266663
H    -2.207921     0.967066     0.039231
H    -4.676557     0.510245     2.147368
O    -4.992306    -0.424064     2.154005
H    -4.477755    -0.897883     1.492399
H     0.058280    -0.329862     0.933904
O    -0.137754    -0.090836     0.007238
H     0.201883     0.806177    -0.110115
H    -0.162548    -3.606220     3.751553
O    -0.445830    -2.777925     4.172837
H     0.197018    -2.607339     4.877691
H    -4.901114     2.495222     1.299095
O    -4.264040     2.083961     1.915203
H    -3.418547     2.070771     1.406608
H    -3.253013     3.875977    -2.232882
O    -2.515548     3.279459    -2.000298
H    -2.151897     2.995728    -2.859164
H    -0.119140    -3.825830     0.477010
O     0.216415    -3.007731     0.897375
H    -0.573294    -2.524682     1.207887
H    -2.385401    -1.569918     2.439236
O    -2.194721    -2.033865     1.597443
H    -2.447944    -1.443869     0.868570
H     2.078802    -1.454029    -1.133261
O     2.307152    -1.708128    -0.215366
H     1.517893    -2.139418     0.164056
H    -1.405171     1.797577     1.893837
O    -1.501893     1.396945     2.767942
H    -1.490701     2.107119     3.435401
H     0.219675    -2.717939    -1.592927
O    -0.538057    -2.108760    -1.648172
H    -0.362475    -1.383033    -1.012364
H    -3.427638    -2.951874    -0.427394
O    -2.711218    -3.441898    -0.851394
H    -1.999405    -2.810475    -1.062961
H     2.757397     0.110165     2.928068
O     2.852439    -0.074816     3.889689
H     2.940145     0.817112     4.297282
H    -3.547826     6.353086    -0.558563
O    -3.308537     7.017811    -1.256272
H    -3.170768     7.862301    -0.783554
H     3.892504     0.572627     1.186353
O     2.941907     0.388005     1.297789
H     2.709471    -0.363685     0.715573
H    -5.779882     0.813842    -1.644626
O    -4.870700     1.141797    -1.512137
H    -4.985415     1.969315    -0.999695
H    -1.238897     5.369416     2.201216
O    -1.861237     4.620646     2.080314
H    -1.940970     4.199805     2.941605
H     3.481162     2.752531     0.429191
O     3.236480     2.711112    -0.510934
H     3.573479     1.870637    -0.862315
H     1.510903    -4.706474    -2.273579
O     1.570012    -3.929828    -1.698932
H     2.365313    -3.466051    -2.045068
H    -0.913455    -0.100053    -2.568553
O    -0.280779     0.555362    -2.889331
H    -0.023994     1.136657    -2.150212
H     1.709951    -4.699629    -0.201432
O     1.815279    -5.337835     0.540294
H     1.355860    -6.149963     0.240375
H    -1.207122    -3.281036    -2.909631
O    -1.032117    -3.962119    -3.572308
H    -0.903142    -4.810270    -3.105774
H    -2.811810     3.270700     4.684587
O    -1.830565     3.270011     4.654112
H    -1.539885     2.867295     5.490704
H     0.928178     5.008143     4.075176
O    -0.018844     5.237238     4.124012
H    -0.489183     4.432009     4.378340
H    -1.719865    -4.674345    -0.407026
O    -0.953929    -5.212284    -0.120079
H    -1.301178    -5.903768     0.453179
H    -3.926566     5.809146    -2.616612
O    -4.273627     4.974995    -2.950273
H    -4.114277     4.943346    -3.917868
H    -2.429620    -3.719544     1.900358
O    -2.449005    -4.624122     2.274701
H    -1.509387    -4.862525     2.416709
H    -4.678004    -3.005198    -2.941985
O    -3.824635    -3.234454    -3.346727
H    -3.491224    -4.027824    -2.882316
H     0.313587     1.347038     4.602831
O     0.817885     2.109675     4.272426
H     0.863141     2.766737     4.981347
H    -4.572631    -5.181073    -1.602174
O    -5.317329    -4.887650    -1.039703
H    -5.034622    -5.184256    -0.147996
H     2.357622    -6.484500    -4.063438
O     2.015782    -6.158688    -3.210621
H     2.449100    -6.733124    -2.547048
H     0.489120    -3.386856    -4.029839
O     1.292343    -3.016054    -4.448318
H     0.975941    -2.643431    -5.297444
H     1.954063    -1.774037     2.968009
O     2.112225    -2.703998     2.748965
H     1.429787    -2.917816     2.078642
H    -2.999332    -1.828023    -3.244397
O    -2.580953    -0.940503    -3.174327
H    -3.236234    -0.295611    -3.496043
H    -3.211818     4.945284     1.062178
O    -3.993216     5.316967     0.605627
H    -4.412348     5.872434     1.311501
H     0.856232     2.230475     2.582907
O     0.960403     2.228024     1.612026
H     1.690407     1.607976     1.449197
H     0.174588     5.640668    -0.760377
O     0.696026     6.305169    -1.265815
H     0.834092     7.104058    -0.707604
H     0.309675     7.011506     2.592629
O    -0.048286     6.631818     1.773011
H     0.618927     5.964081     1.512415
H    -2.496932     0.181473     3.314199
O    -2.719235    -0.634838     3.815384
H    -1.961215    -0.674016     4.440468
H    -0.923338     0.516905     6.005521
O    -0.645457    -0.000072     5.230768
H     0.069223    -0.601822     5.518640
H     0.712047    -5.016640     1.953060
O     0.166120    -5.129538     2.754593
H     0.312598    -6.050448     3.025125
H    -2.102221    -8.114737     0.401326
O    -1.781709    -7.625321     1.185725
H    -2.570238    -7.323670     1.644215
H    -0.392497     6.849894    -2.327053
O    -1.138287     7.268707    -2.828285
H    -1.929962     7.139024    -2.267899
H    -1.131040     4.286314     0.563021
O    -0.754992     4.350324    -0.331570
H    -1.458503     4.108354    -0.967233
H    -4.434319     2.707430     3.478773
O    -4.437640     2.875345     4.443663
H    -4.519725     1.991179     4.850447
H     2.013733    -3.606771     4.225888
O     1.947126    -4.081096     5.077672
H     2.450952    -3.545239     5.711626
H     4.690172    -3.203280     0.832352
O     4.533241    -3.125399    -0.134585
H     3.673395    -2.650392    -0.220097
H    -2.718237    -0.771322    -1.381627
O    -3.052259    -0.506280    -0.508153
H    -3.850731     0.021419    -0.717895
H    -1.598469    -0.772045    -4.656704
O    -1.089978    -0.552731    -5.458534
H    -0.382513     0.044998    -5.169738
H     1.809978    -1.720454    -3.391773
O     1.897133    -0.975031    -2.766233
H     1.119137    -0.399468    -2.899619
H     3.658227    -3.138041     2.539844
O     4.618140    -3.363969     2.469818
H     4.675138    -4.324316     2.594392
H     3.427331    -6.139209     3.103914
O     3.786015    -5.934606     2.205717
H     3.049516    -5.590177     1.660776
H    -3.334668     1.592974    -4.205405
O    -4.179125     1.119357    -4.018650
H    -4.400322     1.263387    -3.062757
H    -5.096737     4.114481     0.039820
O    -5.533301     3.247721    -0.067865
H    -6.462642     3.366347    -0.353069
H     6.739398    -1.179585    -1.356267
O     5.964185    -1.033464    -0.807651
H     5.547163    -1.902968    -0.613717
H     4.608725    -3.169461    -2.477681
O     3.741984    -2.999547    -2.896671
H     3.750346    -3.616539    -3.654295
H     4.415248    -2.315448     5.615996
O     4.070017    -2.783985     6.406355
H     4.408306    -3.687742     6.324023
H    -0.795184     6.303999     5.070621
O    -1.395797     6.876685     5.607689
H    -1.409739     7.754923     5.168532
H     4.701370    -0.139072    -1.465621
O     3.933316     0.401681    -1.730091
H     3.244086    -0.200200    -2.064376
H    -0.742536     4.512856    -4.046362
O    -1.526229     5.053952    -4.255769
H    -1.378625     5.920165    -3.830823
H     0.657885     3.193228    -2.664913
O     0.667067     3.572051    -3.572511
H     0.719553     2.810238    -4.159701
H    -5.288975    -5.170329     1.818975
O    -4.609099    -5.786812     1.468068
H    -3.766542    -5.354404     1.731104
H     7.898278    -1.678338    -4.024442
O     7.635915    -1.368030    -3.125077
H     7.147484    -0.525099    -3.281428
H     3.732362    -5.068676    -5.305807
O     4.491548    -4.693906    -4.820748
H     4.876230    -5.405215    -4.275365
H    -3.807174    -0.023539     4.902469
O    -4.412713     0.437196     5.532866
H    -5.071286    -0.223778     5.821647
H     3.478948    -5.951321    -0.538186
O     4.351974    -5.700698    -0.852402
H     4.425255    -4.738633    -0.705735
H     5.014187    -0.331395    -4.159180
O     4.481921    -1.042964    -4.552869
H     4.155161    -1.629345    -3.837789
H    -1.165300     1.559775    -3.954889
O    -1.816500     2.178873    -4.341818
H    -1.456195     2.514101    -5.185653
H     4.907484    -6.322591    -2.329535
O     5.244728    -6.644024    -3.194751
H     6.063057    -7.123671    -3.006049
H     8.761720    -5.080756    -2.914383
O     8.069175    -5.501580    -2.359946
H     8.106867    -6.458591    -2.464093
H     2.319878     4.705656     0.455037
O     1.737374     4.684134     1.223677
H     1.382394     3.762685     1.297730
H    -4.429966    -2.677531     4.188813
O    -5.323618    -2.338577     3.982467
H    -5.184395    -1.553712     3.412647
H    -5.782064    -3.160279     1.278996
O    -6.288147    -3.692313     1.943729
H    -6.076796    -3.248006     2.792420
H     1.646229     3.436948     6.860168
O     1.023790     3.951817     6.325044
H     0.238394     4.101733     6.894178
H     4.988743    -2.184190     3.612818
O     5.004451    -1.467450     4.278740
H     4.191738    -0.913145     4.120247
H     2.382324    -5.601787     4.816463
O     2.766035    -6.483618     4.555431
H     2.023511    -7.067113     4.377207
H     2.292334    -4.512070    -6.810567
O     2.120797    -5.002943    -5.996940
H     1.852249    -4.314336    -5.340598
H     6.448837    -4.104186    -0.506198
O     7.201389    -4.506064    -0.040890
H     7.712683    -4.925854    -0.760595
H    -1.771596     4.447524     7.687700
O    -0.874515     4.546993     8.076739
H    -0.696218     5.506587     8.104415
H    -5.116314     5.674568    -5.620101
O    -4.506881     4.912489    -5.639796
H    -3.747871     5.130308    -6.202196
H     3.317336    -2.517002    -8.448091
O     3.227640    -3.051253    -7.648048
H     4.102688    -3.026247    -7.215953
H    -0.678945     8.811985    -2.277005
O    -0.560535     9.639385    -1.755504
H     0.200101     9.465852    -1.176315
H     2.044320    -0.939113     5.199921
O     1.469834    -1.467479     5.783421
H     1.560018    -1.124950     6.682083
H     5.229201    -2.015641    -5.695437
O     5.579306    -2.779709    -6.217985
H     5.305903    -3.571674    -5.703258
H     5.686984    -5.230522     4.677745
O     5.161150    -5.148680     5.502475
H     4.442095    -5.782919     5.412949
H    -4.009117     1.099465     6.976642
O    -3.821618     1.573627     7.822227
H    -4.699654     1.956423     8.080738
H    -1.878769     9.592672    -0.747260
O    -2.740772     9.462471    -0.276629
H    -3.352033     10.090572    -0.664996
H    -5.953565     4.662323    -2.968377
O    -6.860891     4.540551    -3.315330
H    -6.765891     3.840709    -3.994312
H     0.113776    -7.080650    -1.177799
O     0.576794    -7.516070    -0.429286
H    -0.104383    -7.716124     0.215948
H    -7.644123     3.757733    -2.011350
O    -7.906999     3.167434    -1.274282
H    -7.759403     2.260666    -1.616550
H     3.944379    -0.918232     6.982328
O     3.950070     0.045970     6.975144
H     4.763469     0.339164     6.547851
H     2.242886     5.786119    -1.174494
O     3.178692     5.495619    -1.057201
H     3.360025     4.958070    -1.851074
H     6.559808    -5.933130     0.665468
O     6.191087    -6.671690     1.195937
H     5.284966    -6.397603     1.420009
H    -3.916044     4.681085     7.759655
O    -3.345933     4.221392     7.101395
H    -3.536728     3.277174     7.209393
H     5.779052    -7.949987     0.123428
O     5.495649    -8.636216    -0.516982
H     4.666927    -8.312278    -0.913425
H    -0.597223     2.002869     7.678384
O    -1.227606     1.938068     6.940802
H    -2.097046     1.793160     7.334003
H    -6.387606    -0.158482     1.017540
O    -6.706157    -0.248259     0.104336
H    -7.627954    -0.507508     0.121791
H    -5.365958    -3.099382    -0.638438
O    -5.120651    -2.400218    -0.007417
H    -5.687471    -1.624473    -0.195144
H     4.296842     5.569709     0.332838
O     4.626779     5.669023     1.239629
H     3.929209     6.176477     1.690344
H    -9.042553    -1.760957    -2.400357
O    -8.533263    -1.540468    -1.590510
H    -8.660690    -2.251591    -0.927985
H    -5.517672     3.450694    -5.558272
O    -6.034074     2.737037    -5.147333
H    -5.366885     2.153159    -4.732550
H     3.200196    -0.885272    -5.662493
O     2.346289    -1.006694    -6.131722
H     2.436563    -1.854125    -6.607214
H     8.136862    -1.332605    -6.018621
O     8.145604    -2.197543    -5.563994
H     7.291647    -2.599461    -5.818899
H     7.637773     1.007185    -6.295776
O     7.452680     0.159341    -6.711683
H     6.471658     0.106718    -6.751760
H    -7.909063    -3.582750     0.919805
O    -8.614226    -3.562860     0.247001
H    -8.349076    -4.231374    -0.415783
H    -2.440673     8.708754     1.286890
O    -2.291390     8.118632     2.039000
H    -1.518599     7.568450     1.818082
H    -4.479294     6.396952     3.477559
O    -4.647504     6.823946     2.621128
H    -3.885484     7.412754     2.485822
H     3.400603     3.445203    -3.573602
O     3.244120     4.413771    -3.478441
H     2.279565     4.476144    -3.589813
H    -6.101652    -1.633614    -3.486782
O    -6.191838    -2.215152    -2.704446
H    -6.974701    -1.903231    -2.198850
H     6.442016     1.036814     4.749536
O     6.043531     1.572858     5.452059
H     6.230356     2.492725     5.164085
H     1.374352     1.720546    -5.830780
O     1.178095     1.122215    -5.078870
H     1.545961     0.261086    -5.349096
H    -2.542394     2.913383     10.464004
O    -2.326731     2.007034     10.189197
H    -2.921200     1.807553     9.454203
H     7.612185    -0.503738     3.094156
O     6.859839     0.069419     3.261274
H     6.167949    -0.533742     3.636847
H    -5.655600    -8.244144    -0.456606
O    -4.848208    -8.277195     0.105624
H    -4.802814    -7.411534     0.539492
H    -5.164245    -0.140725    -4.751490
O    -5.779657    -0.853870    -4.992118
H    -6.617092    -0.413097    -5.195627
H     1.914623    -0.194550    -7.525639
O     1.714550     0.278687    -8.369131
H     2.294920    -0.123184    -9.021067
H     4.906765    -1.376984    -9.306048
O     3.982005    -1.150088    -9.591254
H     3.965820    -1.266088    -10.540608
H     7.549998    -2.579541     4.205485
O     7.700213    -2.612666     3.246415
H     7.210570    -3.404591     2.970951
H     6.721669    -5.902274     2.679355
O     6.778823    -5.228358     3.382118
H     7.653296    -5.312115     3.803230
H    -1.863441     8.916104     3.493617
O    -1.620007     9.219219     4.393623
H    -2.470862     9.348561     4.846143
H    -7.379020     1.541333    -5.292815
O    -7.952929     0.795476    -5.050533
H    -8.856018     1.193269    -4.977862
H     6.956509    -1.063618    -8.397754
O     6.377220    -1.785415    -8.665204
H     6.147758    -2.238093    -7.835229
H    -1.671936     6.234304    -7.031991
O    -2.068658     5.407519    -6.761305
H    -1.823153     5.275445    -5.797117
H    -0.047611     3.271433     9.013806
O     0.150731     2.351489     9.267179
H    -0.648636     2.084093     9.770260
H     6.769264    -2.774256    -2.702900
O     6.239324    -3.520679    -2.365867
H     6.711152    -4.329687    -2.612110
H    -4.054973    -3.090285    -4.984282
O    -4.207806    -2.976636    -5.949088
H    -4.755036    -2.183721    -6.005976
H     1.936961     2.150737     8.460831
O     2.602797     2.266490     7.773236
H     3.028042     1.397740     7.657667
H    -6.898762    -5.298968    -1.504277
O    -7.850038    -5.452894    -1.733423
H    -7.942341    -5.016608    -2.611675
H    -3.867915     5.214699     5.677745
O    -3.835244     5.984153     5.088263
H    -2.902555     6.281328     5.186709
H    -7.883963     0.056611    -2.014326
O    -7.391436     0.779692    -2.424946
H    -7.617017     0.771354    -3.379090
H     5.830685     0.125998     0.417487
O     5.604180     0.845395     1.039197
H     6.112035     0.649846     1.853585
H    -6.257567     3.259721     7.362789
O    -6.131198     2.739868     8.190655
H    -6.729208     1.977289     8.098855
H     2.298207    -8.084589    -0.869717
O     2.977478    -8.067965    -1.563663
H     2.757284    -8.781581    -2.179101
H    -2.715149    -3.972695    -6.234211
O    -1.962445    -4.538797    -5.999704
H    -1.688955    -4.247861    -5.101438
H    -5.679005     3.716421     5.279307
O    -6.332213     4.109406     5.894380
H    -6.170507     5.053830     5.884969
H    -0.992855    -7.128643    -3.199343
O    -0.524832    -6.457001    -2.669332
H     0.384388    -6.385861    -3.045907
H     4.414428     1.998153     5.133585
O     3.472542     2.235202     5.010479
H     3.085073     2.248380     5.891040
H     4.067993     4.635279     6.310731
O     4.149074     5.367070     5.694630
H     3.584979     5.126798     4.921127
H     2.735339     3.597495     3.924974
O     2.555493     4.537407     3.760365
H     2.439653     4.637867     2.793727
H     9.392235     0.220040    -1.051574
O     8.583613     0.379512    -0.561162
H     8.408341    -0.440811    -0.070303
H    -2.161047     5.272958     10.638148
O    -2.882315     4.641962     10.865178
H    -3.104629     4.816481     11.779935
H     7.974966    -3.007556     0.334083
O     8.392618    -2.160204     0.592698
H     8.323382    -2.157797     1.554785
H     5.342370     3.652927     3.537230
O     5.995409     3.918550     4.206445
H     5.579078     4.634405     4.708282
H    -4.264729     4.971861     9.763469
O    -4.895424     5.122220     9.039191
H    -5.505334     4.372056     9.033332
H    -6.993237    -3.504978    -3.538416
O    -7.608315    -4.123815    -3.985567
H    -7.084660    -4.559420    -4.690403
H    -0.035172     6.086941     10.768338
O    -0.899787     6.416198     10.518336
H    -0.781832     6.849276     9.653590
H     2.595921     1.493278    -4.108786
O     3.472291     1.848096    -3.866165
H     3.791398     1.332310    -3.095608
H    -7.004664    -0.271193     7.175937
O    -7.516246     0.505467     7.455653
H    -8.137428     0.688894     6.749832
H    -2.714841    -9.898410    -0.885537
O    -2.654957    -8.957105    -1.048835
H    -3.552732    -8.593054    -0.785726
H    -10.063269     3.041440    -4.947802
O    -10.178394     2.123472    -4.667850
H    -10.398173     2.206811    -3.718874
H    -2.082906    -3.057521     4.582814
O    -2.957769    -3.498838     4.646794
H    -2.944576    -4.117409     3.891101
H    -0.171350    -8.007575     2.450216
O     0.652710    -7.794083     2.900948
H     1.374033    -8.087889     2.316834
H     6.683000    -2.390616     6.395921
O     7.135924    -3.098092     5.932278
H     6.508174    -3.834619     5.890112
H    -5.298271    -2.050737     6.902493
O    -5.974199    -1.553996     6.416468
H    -5.953221    -1.929484     5.507129
H     0.850142     3.032910    -7.121606
O     1.768686     2.704353    -7.174653
H     1.759392     1.958324    -7.802379
H    -4.008396     8.714192     6.660380
O    -4.003115     8.713745     5.703023
H    -4.124837     7.786376     5.433169
H    -2.081737     10.296993    -2.739017
O    -2.982797     10.476407    -3.043882
H    -2.910373     11.112557    -3.754759
H     9.401209    -4.063859     4.054034
O     9.120705    -4.744040     4.674013
H     8.687467    -4.274390     5.397683
H    -0.701253    -6.003661    -5.874752
O     0.001938    -6.568829    -5.538639
H     0.837418    -6.105473    -5.752363
H     1.796160     8.260815     0.672877
O     1.495084     8.583462    -0.205179
H     2.311616     8.625028    -0.732560
H     3.510853     2.936056    -6.659387
O     4.337664     2.647090    -6.247695
H     4.089893     2.370694    -5.340335
H     3.714088     7.119592    -1.216797
O     3.917947     8.056323    -1.427547
H     4.290770     8.003133    -2.319555
H     4.420184     0.003855    -7.912221
O     4.793152     0.149159    -7.040868
H     4.608436     1.080179    -6.796175
H     6.022460     1.931762    -0.465087
O     6.589834     2.128147    -1.224507
H     7.415052     1.650311    -1.028710
H     6.707547    -8.428522    -1.617454
O     7.345519    -8.214439    -2.351288
H     7.715330    -9.047093    -2.639833
H    -5.267509    -5.808097    -5.461862
O    -5.888782    -5.135614    -5.767351
H    -5.340443    -4.365622    -6.005507
H     0.629780     7.140966     7.602851
O    -0.273192     7.165132     7.958999
H    -0.825694     7.180349     7.139543
H    -8.880177    -2.866965    -4.160231
O    -9.400914    -2.059959    -3.987902
H    -9.119137    -1.392121    -4.616864
H    -2.393717    -6.006996    -2.179628
O    -3.270712    -5.721907    -2.453778
H    -3.449187    -6.094467    -3.342516
H    -2.956858    -5.913808    -5.449520
O    -3.556957    -6.525943    -4.980115
H    -3.072449    -7.345365    -4.814681
H    -1.379307     3.721028    -6.996635
O    -0.838493     2.965923    -6.724992
H    -1.070799     2.181553    -7.277944
H    -0.179230     0.417856    -8.232909
O    -1.076986     0.649857    -7.952138
H    -1.253355     0.124036    -7.156007
H    -10.429322     4.013896    -2.781275
O    -10.495411     3.233247    -2.215648
H    -9.667986     3.209600    -1.703511
H     4.557977     4.070810     1.729927
O     4.350770     3.148582     2.005148
H     5.069466     2.575268     1.725757
H     6.492811     1.406728    -4.208974
O     6.188551     0.780374    -3.517535
H     6.215350     1.273971    -2.672497
H     9.637433    -2.216792    -0.915122
O     9.916807    -1.999364    -1.813326
H     9.117147    -1.661987    -2.258987
H     9.984889    -3.305809    -3.085431
O     9.721909    -3.957029    -3.762730
H     9.329748    -3.448896    -4.483445
H    -7.848778    -8.127408    -0.510968
O    -7.203234    -8.248081    -1.228023
H    -7.350109    -7.444671    -1.752383
H     4.153811     6.082698    -3.808770
O     4.812549     6.785602    -3.719516
H     5.649576     6.333745    -3.580149
H     0.134209    -8.176487    -5.250296
O     0.159570    -9.159367    -5.120103
H     0.314050    -9.521644    -5.992582
H    -2.306096    -8.690778    -2.763056
O    -2.069049    -8.422337    -3.670978
H    -1.420744    -9.039464    -4.029082
H     2.220389    -10.820595    -3.527296
O     2.172437    -9.866120    -3.502709
H     1.387518    -9.596825    -4.030311
H     6.839072     3.341100    -4.558519
O     6.901521     2.664474    -5.260503
H     6.109831     2.796768    -5.803994
H    -3.588798    -3.765983     7.682836
O    -3.703790    -2.977906     7.153309
H    -3.447419    -3.214669     6.235838
H    -0.608518    -3.366703    -6.751609
O     0.019400    -2.633389    -6.754684
H    -0.465665    -1.859931    -6.413315
H     0.602675     0.425748     8.739314
O     0.614242    -0.287315     8.096883
H    -0.306825    -0.578643     8.005529
H    -5.842598     7.345424    -4.274119
O    -6.341870     6.726182    -4.838053
H    -6.629345     5.993806    -4.249172
H    -4.296089     9.082113    -3.276430
O    -4.829813     8.284161    -3.173700
H    -4.422765     7.804499    -2.434157
H    -9.715264     5.763933    -4.685672
O    -10.247024     4.957342    -4.526180
H    -11.126828     5.156824    -4.848102
H     2.723157     6.492071     6.148175
O     1.762416     6.585728     6.242527
H     1.421781     5.671668     6.136983
H     4.775351     8.542538     0.103988
O     5.089050     8.542122     1.026182
H     5.498224     7.678822     1.156667
H     4.173857    -7.423094    -4.360596
O     3.418192    -7.707985    -4.906201
H     3.139021    -8.550995    -4.533781
H     0.333130     8.634256     4.238049
O     1.013068     7.991655     4.010858
H     1.238196     7.497875     4.825346
H     5.230808     4.194655    -3.145669
O     6.192121     4.167203    -3.089441
H     6.399951     3.584687    -2.342133
H    -2.607443    -1.585781     7.543505
O    -2.100181    -0.791353     7.766152
H    -2.728498    -0.167954     8.140847
H    -9.038866     7.905671    -4.179846
O    -8.971469     7.321431    -4.936530
H    -8.013449     7.161314    -5.069390
H     3.544680    -8.991087     1.067091
O     2.865856    -8.360919     1.314100
H     3.337716    -7.555449     1.598050
H     3.550435     8.160132     1.843731
O     2.760950     7.594331     1.951938
H     2.311222     7.827071     2.777007
N    -9.241477    -6.988541     0.370306
H    -9.104173    -6.342510    -0.338758
H    -9.207276    -6.455234     1.171115
