39

H    -3.003000    -1.837564    -3.176974
O    -2.561838    -0.955393    -3.142132
H    -3.239413    -0.305278    -3.416873
H    -1.547976    -0.816397    -4.658050
O    -0.990051    -0.559312    -5.420972
H    -0.263348    -0.040960    -5.044332
H    -3.322721     1.591579    -4.141281
O    -4.187841     1.146579    -3.934479
H    -4.377637     1.304654    -2.972347
H    -1.115484     1.590400    -3.905758
O    -1.795760     2.191032    -4.270547
H    -1.471406     2.535753    -5.129257
H    -5.129789     5.801167    -5.552852
O    -4.518181     5.037159    -5.631494
H    -3.751746     5.323852    -6.156698
H    -5.500704     3.523971    -5.602053
O    -6.013418     2.812618    -5.168840
H    -5.334652     2.295044    -4.683807
H    -5.199325    -0.101343    -4.702486
O    -5.796786    -0.820108    -4.986404
H    -6.659266    -0.384999    -5.120725
H    -7.402100     1.676900    -5.250695
O    -7.963232     0.907316    -5.027069
H    -8.874449     1.287136    -4.923559
H    -1.628830     6.298073    -6.964100
O    -2.008919     5.454470    -6.702604
H    -1.764766     5.349584    -5.731581
H    -4.077395    -3.109404    -4.917848
O    -4.199019    -3.001441    -5.890739
H    -4.733814    -2.196461    -5.951865
H    -1.224056     3.796500    -7.015483
O    -0.765859     3.004617    -6.688636
H    -0.984013     2.231006    -7.262703
H    -0.107268     0.423548    -8.243525
O    -1.001650     0.625726    -7.915966
H    -1.073657     0.133697    -7.071486
N    -3.706906     1.480913    -7.093935
H    -4.595226     1.296724    -7.411398
H    -3.119110     1.074055    -7.742075
