603

H     0.202401     3.027722    -0.684669
O     0.725331     2.360006    -1.178836
H     1.664024     2.488350    -0.904718
H    -0.073172    -1.312793     3.142251
O     0.318829    -0.612353     2.598068
H    -0.158578     0.201070     2.832307
H    -2.396715     2.407855    -0.541150
O    -2.184879     1.936425     0.281993
H    -2.202948     0.988730     0.056447
H    -4.660076     0.542809     2.176228
O    -4.977191    -0.390511     2.188940
H    -4.473386    -0.867856     1.521578
H     0.065820    -0.313127     0.943934
O    -0.130048    -0.076138     0.016725
H     0.207186     0.821477    -0.102128
H    -0.151834    -3.583785     3.768179
O    -0.429849    -2.753382     4.188613
H     0.216016    -2.583668     4.890838
H    -4.883656     2.527116     1.325760
O    -4.243894     2.117005     1.939870
H    -3.401401     2.099710     1.426873
H    -3.247309     3.896860    -2.215473
O    -2.509699     3.299403    -1.985558
H    -2.151753     3.012493    -2.845639
H    -0.124934    -3.809231     0.493990
O     0.216599    -2.991419     0.910422
H    -0.570216    -2.505026     1.223898
H    -2.375382    -1.543649     2.461578
O    -2.186081    -2.008703     1.620136
H    -2.445705    -1.421377     0.891289
H     2.072472    -1.447084    -1.130473
O     2.306100    -1.701619    -0.214320
H     1.516672    -2.128050     0.170866
H    -1.388289     1.820055     1.905872
O    -1.479203     1.421394     2.781508
H    -1.464825     2.133035     3.447295
H     0.207209    -2.706136    -1.578345
O    -0.546539    -2.092611    -1.635102
H    -0.367662    -1.367753    -0.999312
H    -3.436617    -2.928843    -0.400284
O    -2.718849    -3.419759    -0.821633
H    -2.009301    -2.788385    -1.039081
H     2.774785     0.122241     2.924774
O     2.874970    -0.061396     3.886031
H     2.966308     0.831085     4.291748
H    -3.526700     6.377862    -0.544895
O    -3.288229     7.040822    -1.244749
H    -3.146343     7.885631    -0.773929
H     3.903953     0.578192     1.176679
O     2.953436     0.396394     1.292483
H     2.715853    -0.355646     0.713014
H    -5.780599     0.841428    -1.609605
O    -4.869972     1.168526    -1.483666
H    -4.980692     1.996663    -0.971484
H    -1.208436     5.392142     2.206711
O    -1.833164     4.644905     2.089415
H    -1.911207     4.225829     2.951727
H     3.495451     2.758529     0.417722
O     3.247220     2.715847    -0.521473
H     3.579508     1.873339    -0.872037
H     1.487143    -4.699713    -2.258727
O     1.553969    -3.921183    -1.688609
H     2.349076    -3.461377    -2.039143
H    -0.921860    -0.086365    -2.556319
O    -0.286141     0.564944    -2.879902
H    -0.026322     1.147491    -2.142802
H     1.698525    -4.689430    -0.189727
O     1.809235    -5.328209     0.550232
H     1.342050    -6.138337     0.255286
H    -1.228821    -3.267202    -2.890895
O    -1.052058    -3.949212    -3.552135
H    -0.931817    -4.797531    -3.084029
H    -2.776593     3.302181     4.700057
O    -1.795323     3.299177     4.665512
H    -1.502357     2.896859     5.501472
H     0.965953     5.027488     4.071295
O     0.019953     5.259776     4.123633
H    -0.452136     4.456628     4.381452
H    -1.730503    -4.653955    -0.381493
O    -0.964724    -5.193398    -0.095904
H    -1.312128    -5.883248     0.479014
H    -3.916657     5.831621    -2.600052
O    -4.267216     4.997659    -2.930412
H    -4.113186     4.963911    -3.898770
H    -2.429416    -3.693817     1.926331
O    -2.447946    -4.598154     2.301676
H    -1.508346    -4.837012     2.441310
H    -4.696183    -2.979687    -2.907457
O    -3.843830    -3.212297    -3.314107
H    -3.514244    -4.007561    -2.850236
H     0.342783     1.369700     4.607525
O     0.849272     2.129662     4.274090
H     0.898067     2.788317     4.981284
H    -4.656351    -5.171867    -1.581176
O    -5.357305    -4.817912    -1.006612
H    -5.144255    -5.173755    -0.122977
H     2.344710    -6.535929    -3.966008
O     2.001967    -6.202747    -3.126131
H     2.402117    -6.809019    -2.462524
H     0.467537    -3.386847    -4.016256
O     1.272215    -3.028210    -4.444604
H     0.947841    -2.647214    -5.287237
H     1.965962    -1.759634     2.971755
O     2.121464    -2.690107     2.752742
H     1.434410    -2.903207     2.086725
H    -3.016060    -1.809293    -3.218151
O    -2.592750    -0.923143    -3.154448
H    -3.249023    -0.276923    -3.471527
H    -3.187785     4.971965     1.076905
O    -3.969546     5.345959     0.622986
H    -4.384321     5.903340     1.329827
H     0.878442     2.247653     2.584035
O     0.979075     2.243551     1.612728
H     1.705979     1.620518     1.448011
H     0.192311     5.653749    -0.762180
O     0.713955     6.315680    -1.270948
H     0.856374     7.115243    -0.714831
H     0.346870     7.030383     2.587749
O    -0.015574     6.650594     1.770168
H     0.648134     5.979998     1.508128
H    -2.477545     0.209575     3.334126
O    -2.698921    -0.605049     3.838221
H    -1.938319    -0.644920     4.459806
H    -0.890106     0.545878     6.017809
O    -0.616326     0.027092     5.242783
H     0.096842    -0.576953     5.528926
H     0.710811    -5.000009     1.967933
O     0.169471    -5.109671     2.772814
H     0.313013    -6.030903     3.043603
H    -2.118794    -8.092637     0.433575
O    -1.796473    -7.603674     1.218401
H    -2.582919    -7.294585     1.675614
H    -0.378281     6.861942    -2.328220
O    -1.124945     7.282109    -2.826850
H    -1.914591     7.155932    -2.262648
H    -1.111026     4.305886     0.569522
O    -0.738673     4.367091    -0.326852
H    -1.446051     4.126263    -0.958776
H    -4.406293     2.742042     3.503178
O    -4.403914     2.911675     4.467848
H    -4.487476     2.028357     4.876370
H     2.026249    -3.589863     4.232226
O     1.963517    -4.063251     5.084818
H     2.469962    -3.526743     5.716084
H     4.687801    -3.202124     0.825626
O     4.527155    -3.126349    -0.141099
H     3.668519    -2.648002    -0.223161
H    -2.722864    -0.750271    -1.359847
O    -3.049199    -0.480574    -0.485040
H    -3.850225     0.045025    -0.690615
H    -1.618939    -0.761015    -4.640550
O    -1.109315    -0.546857    -5.443524
H    -0.402430     0.052715    -5.157673
H     1.792160    -1.718391    -3.388953
O     1.885879    -0.971814    -2.767001
H     1.107655    -0.394506    -2.894490
H     3.664519    -3.128671     2.537671
O     4.623400    -3.358310     2.462646
H     4.677687    -4.318303     2.590784
H     3.427640    -6.128858     3.108742
O     3.783092    -5.927273     2.208323
H     3.044758    -5.581317     1.666622
H    -3.345297     1.611917    -4.182534
O    -4.189659     1.140680    -3.991836
H    -4.407228     1.285765    -3.034969
H    -5.080853     4.145333     0.064095
O    -5.519353     3.279329    -0.039901
H    -6.450079     3.398753    -0.320741
H     6.734500    -1.187408    -1.374065
O     5.960986    -1.038733    -0.823831
H     5.542657    -1.906579    -0.625789
H     4.593188    -3.170549    -2.482013
O     3.725127    -2.999630    -2.898056
H     3.729129    -3.616512    -3.654184
H     4.438318    -2.303329     5.609174
O     4.095775    -2.769247     6.402160
H     4.430213    -3.674372     6.319883
H    -0.748863     6.330553     5.071997
O    -1.345058     6.906065     5.610896
H    -1.358640     7.783493     5.170127
H     4.698174    -0.141045    -1.477062
O     3.930912     0.401320    -1.740269
H     3.237831    -0.198892    -2.069013
H    -0.742691     4.523459    -4.041500
O    -1.525468     5.066415    -4.249150
H    -1.374239     5.932789    -3.825770
H     0.659623     3.202048    -2.664103
O     0.666951     3.579229    -3.572533
H     0.712714     2.816144    -4.158524
H    -5.383821    -5.197001     1.785083
O    -4.687450    -5.791243     1.428577
H    -3.846632    -5.376317     1.699532
H     7.879744    -1.693469    -4.047622
O     7.621245    -1.381803    -3.147870
H     7.135102    -0.537146    -3.303086
H     3.720552    -5.025770    -5.267499
O     4.488823    -4.681003    -4.774549
H     4.866848    -5.385985    -4.217887
H    -3.781260     0.011710     4.928515
O    -4.381163     0.475681     5.561845
H    -5.041493    -0.182317     5.853789
H     3.463544    -5.947116    -0.533294
O     4.332110    -5.699642    -0.862768
H     4.412274    -4.738569    -0.711530
H     4.998558    -0.336965    -4.173361
O     4.463882    -1.049503    -4.562620
H     4.137499    -1.630768    -3.843422
H    -1.173107     1.571453    -3.943224
O    -1.823741     2.192032    -4.328333
H    -1.466743     2.524930    -5.174321
H     4.876217    -6.329741    -2.333342
O     5.211135    -6.655811    -3.199174
H     6.031280    -7.133825    -3.010783
H     8.736468    -5.097503    -2.936442
O     8.042851    -5.515993    -2.381199
H     8.080777    -6.473437    -2.481232
H     2.340261     4.714560     0.445111
O     1.761638     4.696187     1.216697
H     1.403787     3.776063     1.294028
H    -4.413507    -2.639992     4.223844
O    -5.307459    -2.299958     4.022284
H    -5.170766    -1.518495     3.447229
H    -5.846064    -3.198412     1.310405
O    -6.308750    -3.755584     1.978556
H    -6.119723    -3.320982     2.829386
H     1.691790     3.459443     6.855583
O     1.068720     3.975406     6.322288
H     0.286180     4.128584     6.894572
H     5.002775    -2.177238     3.602770
O     5.024113    -1.459483     4.267250
H     4.212091    -0.902893     4.112016
H     2.392448    -5.585054     4.824272
O     2.772167    -6.468602     4.562681
H     2.026765    -7.050034     4.389668
H     2.253070    -4.390095    -6.773705
O     2.104395    -4.911805    -5.968662
H     1.848883    -4.215188    -5.301137
H     6.437868    -4.109005    -0.518689
O     7.191324    -4.513516    -0.057277
H     7.698041    -4.935624    -0.778662
H    -1.718978     4.481357     7.696939
O    -0.819665     4.579034     8.081465
H    -0.638692     5.538165     8.106733
H    -5.120342     5.695307    -5.597500
O    -4.512514     4.931916    -5.618709
H    -3.756031     5.146575    -6.185532
H     3.273628    -2.530409    -8.448548
O     3.193581    -3.067379    -7.648956
H     4.070276    -3.029225    -7.219440
H    -0.658569     8.825014    -2.280554
O    -0.534990     9.653109    -1.761365
H     0.227487     9.478208    -1.185052
H     2.069455    -0.920485     5.201726
O     1.497135    -1.447167     5.788805
H     1.590873    -1.102317     6.686241
H     5.201577    -2.021555    -5.706896
O     5.543826    -2.787911    -6.232181
H     5.281139    -3.577254    -5.709535
H     5.696557    -5.224405     4.670243
O     5.175109    -5.139402     5.497241
H     4.453431    -5.771343     5.412584
H    -3.969601     1.138971     7.001999
O    -3.776687     1.614388     7.845826
H    -4.652567     2.000022     8.107553
H    -1.849017     9.612305    -0.746728
O    -2.709092     9.485615    -0.271784
H    -3.320480     10.114515    -0.658655
H    -5.948982     4.689682    -2.940100
O    -6.857845     4.571217    -3.283875
H    -6.768258     3.869145    -3.961349
H     0.093187    -7.069059    -1.152882
O     0.559677    -7.501104    -0.403772
H    -0.120241    -7.701955     0.242312
H    -7.637927     3.791219    -1.974588
O    -7.898449     3.203864    -1.234571
H    -7.756295     2.295305    -1.574879
H     3.977504    -0.902395     6.975233
O     3.986299     0.061751     6.966089
H     4.798692     0.351621     6.534688
H     2.259106     5.792472    -1.185583
O     3.194760     5.499363    -1.072528
H     3.370506     4.959808    -1.866167
H     6.548255    -5.936643     0.655810
O     6.178812    -6.674384     1.186725
H     5.275943    -6.395930     1.418819
H    -3.862322     4.721833     7.778006
O    -3.296185     4.259298     7.118338
H    -3.489929     3.315879     7.228359
H     5.759660    -7.952148     0.119411
O     5.472753    -8.636523    -0.521627
H     4.638945    -8.314622    -0.908734
H    -0.552346     2.033423     7.686702
O    -1.186004     1.969320     6.951930
H    -2.054300     1.827837     7.349005
H    -6.382763    -0.123761     1.058333
O    -6.703109    -0.206622     0.145452
H    -7.621882    -0.477363     0.163472
H    -5.373435    -3.066094    -0.594387
O    -5.120004    -2.363545     0.030636
H    -5.690687    -1.590922    -0.155968
H     4.318973     5.572620     0.312538
O     4.653730     5.672287     1.217523
H     3.959919     6.182687     1.670792
H    -9.046216    -1.744198    -2.256635
O    -8.497326    -1.543536    -1.471075
H    -8.624693    -2.280464    -0.833625
H    -5.527424     3.472906    -5.530130
O    -6.044572     2.762007    -5.115596
H    -5.378106     2.176115    -4.702507
H     3.176685    -0.889991    -5.666048
O     2.320121    -1.011477    -6.130536
H     2.404448    -1.859193    -6.604734
H     8.110370    -1.351278    -6.043826
O     8.118113    -2.215969    -5.588510
H     7.262337    -2.615175    -5.839627
H     7.616526     0.988012    -6.323367
O     7.426256     0.139863    -6.736385
H     6.444958     0.091103    -6.772216
H    -7.861792    -3.694269     0.924778
O    -8.540263    -3.586268     0.240670
H    -8.443045    -4.345619    -0.361381
H    -2.404458     8.733468     1.291557
O    -2.253152     8.144412     2.044088
H    -1.483265     7.591352     1.820354
H    -4.440156     6.431570     3.495507
O    -4.610750     6.857871     2.639217
H    -3.847485     7.443985     2.499564
H     3.399146     3.443526    -3.586151
O     3.246236     4.412657    -3.492502
H     2.281198     4.477828    -3.598751
H    -6.119508    -1.604753    -3.447156
O    -6.200926    -2.184241    -2.663321
H    -6.985074    -1.878155    -2.154066
H     6.471233     1.041336     4.727235
O     6.077746     1.579564     5.430814
H     6.265454     2.498510     5.140367
H     1.357502     1.722180    -5.831029
O     1.163263     1.125746    -5.077014
H     1.526113     0.262903    -5.346988
H    -2.481766     2.954663     10.479270
O    -2.269834     2.047255     10.205084
H    -2.868315     1.848143     9.473197
H     7.629096    -0.506235     3.069942
O     6.879146     0.069607     3.238404
H     6.186967    -0.530309     3.618843
H    -5.662647    -8.056220    -0.709636
O    -4.927003    -8.124649    -0.064152
H    -4.931187    -7.307978     0.458589
H    -5.181779    -0.117264    -4.719949
O    -5.798677    -0.828919    -4.960340
H    -6.637255    -0.387360    -5.157016
H     1.883981    -0.198216    -7.524805
O     1.682053     0.272761    -8.368665
H     2.258013    -0.132373    -9.022423
H     4.863313    -1.395714    -9.316902
O     3.936340    -1.171561    -9.596952
H     3.917295    -1.280706    -10.547103
H     7.565930    -2.579084     4.184465
O     7.711631    -2.615026     3.224755
H     7.217875    -3.405851     2.953622
H     6.721231    -5.903673     2.668989
O     6.783019    -5.227567     3.368786
H     7.658805    -5.312491     3.787243
H    -1.816398     8.943029     3.495226
O    -1.567802     9.247057     4.393528
H    -2.416166     9.379632     4.849807
H    -7.394262     1.569874    -5.252893
O    -7.968688     0.825595    -5.007501
H    -8.870469     1.225082    -4.930833
H     6.919358    -1.081339    -8.420080
O     6.337141    -1.802587    -8.682629
H     6.111275    -2.252269    -7.850329
H    -1.680713     6.242397    -7.026254
O    -2.077266     5.416406    -6.752932
H    -1.829006     5.285882    -5.789209
H     0.007397     3.302743     9.017063
O     0.204399     2.382758     9.271413
H    -0.593647     2.118583     9.778361
H     6.752680    -2.782971    -2.719077
O     6.221914    -3.528607    -2.381179
H     6.694400    -4.338062    -2.624471
H    -4.085542    -3.070892    -4.949188
O    -4.239234    -2.957183    -5.914105
H    -4.786704    -2.164288    -5.970132
H     1.985924     2.175472     8.457035
O     2.649280     2.287777     7.766440
H     3.071050     1.417407     7.650595
H    -6.911374    -5.201559    -1.401472
O    -7.827475    -5.469969    -1.645991
H    -7.961710    -5.067665    -2.528888
H    -3.822443     5.251411     5.694814
O    -3.789788     6.019946     5.104126
H    -2.855762     6.314192     5.197934
H    -7.887047     0.088428    -1.968587
O    -7.397250     0.812085    -2.382088
H    -7.626544     0.801713    -3.335107
H     5.837397     0.124152     0.400146
O     5.616252     0.845749     1.020979
H     6.126598     0.650221     1.833858
H    -6.209737     3.306508     7.394597
O    -6.081269     2.787788     8.222829
H    -6.681925     2.026743     8.134674
H     2.279637    -8.073006    -0.846422
O     2.946422    -8.066924    -1.552946
H     2.705863    -8.790053    -2.149731
H    -2.763051    -3.948481    -6.208447
O    -2.003182    -4.507762    -5.980083
H    -1.731155    -4.223347    -5.079115
H    -5.639548     3.757866     5.307410
O    -6.288017     4.154250     5.925324
H    -6.124384     5.098282     5.912186
H    -1.031278    -7.118191    -3.150013
O    -0.552729    -6.445105    -2.628968
H     0.345244    -6.374919    -3.024813
H     4.447984     2.009041     5.119456
O     3.506383     2.248632     4.999824
H     3.122560     2.264831     5.881950
H     4.114492     4.649435     6.293236
O     4.195962     5.379415     5.675039
H     3.627164     5.139834     4.904745
H     2.767801     3.611288     3.915233
O     2.590930     4.551582     3.749709
H     2.470357     4.650661     2.783501
H     9.393276     0.205638    -1.084359
O     8.585578     0.366840    -0.593107
H     8.411232    -0.451157    -0.098158
H    -2.092571     5.313522     10.647501
O    -2.814527     4.684997     10.879024
H    -3.032415     4.862034     11.794355
H     7.971749    -3.016038     0.313245
O     8.393037    -2.169472     0.567774
H     8.328235    -2.164532     1.530230
H     5.373331     3.658312     3.515760
O     6.030603     3.923047     4.181136
H     5.618625     4.640685     4.684133
H    -4.201364     5.016783     9.782912
O    -4.834773     5.168147     9.061256
H    -5.447024     4.419840     9.059070
H    -7.015175    -3.477143    -3.489739
O    -7.636578    -4.087952    -3.938055
H    -7.116471    -4.530850    -4.640375
H     0.036405     6.121339     10.766483
O    -0.828319     6.452911     10.519951
H    -0.713106     6.883953     9.653818
H     2.585651     1.494215    -4.113611
O     3.465297     1.844937    -3.876855
H     3.785093     1.330907    -3.105469
H    -6.968498    -0.221895     7.217056
O    -7.476383     0.556871     7.497904
H    -8.100347     0.740446     6.794542
H    -2.744404    -9.874738    -0.845701
O    -2.683297    -8.932328    -1.002349
H    -3.589026    -8.567959    -0.759637
H    -10.072120     3.079272    -4.896958
O    -10.188907     2.161657    -4.616617
H    -10.404261     2.245169    -3.666753
H    -2.066416    -3.028371     4.606475
O    -2.941296    -3.468265     4.676698
H    -2.936129    -4.085897     3.920238
H    -0.180513    -7.986967     2.475100
O     0.646993    -7.776219     2.920844
H     1.363566    -8.073184     2.332552
H     6.709803    -2.383952     6.378621
O     7.157923    -3.093707     5.913755
H     6.527607    -3.828313     5.876737
H    -5.268799    -2.006936     6.939222
O    -5.945095    -1.508203     6.455953
H    -5.930059    -1.885071     5.546710
H     0.831180     3.033457    -7.121153
O     1.748445     2.701362    -7.178096
H     1.733286     1.955319    -7.805343
H    -3.947976     8.753017     6.672055
O    -3.946257     8.751054     5.714688
H    -4.072388     7.823685     5.446814
H    -2.058687     10.313629    -2.738776
O    -2.960618     10.495272    -3.039693
H    -2.889693     11.129801    -3.752163
H     9.411783    -4.069698     4.028214
O     9.131044    -4.748424     4.649673
H     8.703171    -4.276544     5.375113
H    -0.854290    -5.863073    -5.922968
O    -0.144886    -6.443501    -5.614412
H     0.674274    -5.930481    -5.762619
H     1.828191     8.271627     0.659225
O     1.524309     8.593669    -0.218058
H     2.338576     8.631989    -0.749099
H     3.493924     2.928531    -6.671579
O     4.321397     2.635894    -6.263719
H     4.076976     2.363835    -5.354095
H     3.734153     7.121394    -1.237338
O     3.940225     8.057056    -1.450616
H     4.308467     8.001361    -2.344328
H     4.388002    -0.006916    -7.924120
O     4.764504     0.136335    -7.053980
H     4.584920     1.068627    -6.809083
H     6.030145     1.928340    -0.487080
O     6.594261     2.120467    -1.250056
H     7.419280     1.641520    -1.056560
H     6.677338    -8.436556    -1.627280
O     7.308356    -8.224800    -2.368311
H     7.681998    -9.057610    -2.651572
H    -5.308774    -5.788258    -5.413312
O    -5.925512    -5.114894    -5.725960
H    -5.374559    -4.347371    -5.964414
H     0.690089     7.167778     7.596217
O    -0.211131     7.195341     7.956462
H    -0.767368     7.210624     7.139510
H    -8.902969    -2.831100    -4.103949
O    -9.422335    -2.022040    -3.935666
H    -9.136955    -1.357598    -4.566539
H    -2.417701    -5.989567    -2.148272
O    -3.293314    -5.699673    -2.420937
H    -3.480067    -6.077258    -3.305801
H    -2.996602    -5.900130    -5.420094
O    -3.591395    -6.508447    -4.941946
H    -3.108885    -7.330502    -4.785368
H    -1.394543     3.728767    -6.987178
O    -0.854466     2.972083    -6.718103
H    -1.093717     2.187791    -7.267910
H    -0.212142     0.418398    -8.223521
O    -1.107613     0.653526    -7.938694
H    -1.282271     0.129688    -7.140792
H    -10.424532     4.056033    -2.731854
O    -10.491688     3.277080    -2.164089
H    -9.662087     3.250265    -1.655693
H     4.581875     4.075565     1.711154
O     4.373419     3.154154     1.988335
H     5.089678     2.578726     1.707236
H     6.481964     1.394768    -4.231868
O     6.179245     0.769761    -3.538383
H     6.210681     1.264745    -2.694158
H     9.631014    -2.232337    -0.945041
O     9.906228    -2.019625    -1.845666
H     9.106182    -1.678348    -2.287517
H     9.965066    -3.327641    -3.114581
O     9.695799    -3.978870    -3.789537
H     9.304108    -3.469906    -4.509863
H    -7.702573    -8.574460    -1.674218
O    -6.965456    -7.978675    -1.799827
H    -7.344091    -7.066303    -1.788989
H     4.158918     6.078592    -3.829350
O     4.820372     6.779503    -3.744816
H     5.656617     6.325469    -3.608007
H     0.005311    -8.093460    -5.167654
O     0.177007    -9.061963    -5.064604
H     0.653183    -9.237932    -5.895663
H    -2.331352    -8.679488    -2.732293
O    -2.085667    -8.403058    -3.635118
H    -1.465222    -9.036845    -4.008577
H     2.279018    -10.724700    -3.588917
O     2.138065    -9.784978    -3.469453
H     1.333849    -9.514576    -4.001392
H     6.832779     3.326761    -4.586413
O     6.889481     2.648495    -5.287431
H     6.095989     2.783259    -5.827682
H    -3.561025    -3.726804     7.714587
O    -3.674768    -2.938605     7.185003
H    -3.424638    -3.177521     6.266366
H    -0.651475    -3.358797    -6.731737
O    -0.013429    -2.633523    -6.740197
H    -0.490318    -1.854449    -6.399494
H     0.647973     0.454653     8.744608
O     0.654554    -0.259819     8.103652
H    -0.267935    -0.548253     8.016923
H    -5.835808     7.370229    -4.251488
O    -6.339061     6.751544    -4.812397
H    -6.626271     6.020785    -4.221105
H    -4.279158     9.104520    -3.263659
O    -4.814677     8.308245    -3.157492
H    -4.406097     7.828579    -2.418803
H    -9.714447     5.800796    -4.643317
O    -10.247741     4.996137    -4.479623
H    -11.128637     5.197272    -4.797485
H     2.775018     6.509993     6.133130
O     1.815040     6.606638     6.231664
H     1.471079     5.693415     6.129477
H     4.805836     8.543424     0.076223
O     5.124071     8.543724     0.996843
H     5.530827     7.679264     1.127113
H     4.266990    -7.501713    -4.367948
O     3.504500    -7.840240    -4.874781
H     3.215500    -8.627191    -4.367153
H     0.382535     8.655799     4.229923
O     1.059858     8.011041     4.000954
H     1.286868     7.517883     4.815288
H     5.233321     4.189070    -3.167673
O     6.194820     4.157159    -3.116812
H     6.404087     3.576411    -2.368554
H    -2.573201    -1.549141     7.567138
O    -2.062432    -0.756020     7.786640
H    -2.687604    -0.129905     8.162123
H    -9.029457     7.940494    -4.143431
O    -8.967002     7.355963    -4.900314
H    -8.010127     7.191913    -5.036552
H     3.525585    -8.986859     1.080481
O     2.851039    -8.350073     1.321721
H     3.327116    -7.547343     1.606425
H     3.587621     8.167966     1.822504
O     2.797262     7.604347     1.935109
H     2.351496     7.839958     2.761549
N     2.018703    -8.687213    -7.155157
H     1.625888    -7.922704    -7.589242
H     2.688212    -8.301344    -6.560817
