39
Coordinates from ORCA-job grain_mol_opt.QMRegion
  H   -3.39847495050519      6.43993647630663     -0.49675052127785
  O   -3.22611051006390      7.09893776490418     -1.23014684411198
  H   -3.04369240828463      7.95012078358181     -0.77953054026909
  H   -3.72166002912557      5.83802893062957     -2.77774183183787
  O   -4.16025142073413      5.02956813954215     -3.06638347990604
  H   -3.93106340379802      4.92066793510574     -4.01821737010132
  H   -3.11686655437290      5.00311879470665      1.12730640410284
  O   -3.89336519484788      5.37569724618373      0.64636648038366
  H   -4.31211491492612      5.93189790065129      1.35240030879814
  H   -5.05121846713676      4.14219240329849      0.02420029799664
  O   -5.51444830161469      3.29223547568376     -0.06186576617769
  H   -6.43749431133420      3.38240885773824     -0.38145130684659
  H   -4.95236152906344      5.61845657971801     -5.78870652694875
  O   -4.38111645028407      4.82048858809840     -5.77670388798157
  H   -3.62477911539836      4.98385590604769     -6.36540235825715
  H   -5.90584568859398      4.75560484523044     -3.09566754485539
  O   -6.82045450118946      4.61793407999425     -3.42770409564465
  H   -6.69172991418549      3.87813791225456     -4.07136600025270
  H   -7.59953797608038      3.73819636681896     -2.10536923493500
  O   -7.87142804372757      3.17200591636137     -1.34821866072661
  H   -7.69850967256398      2.26180370216235     -1.69654720901400
  H   -10.61067649364035      3.95606969912441     -2.70923362205316
  O   -10.60593228866355      3.13656494667166     -2.18699066345927
  H   -9.72530247744192      3.13624888175500     -1.77117869345172
  H   -5.68877317148365      7.34735642110038     -4.56037278173344
  O   -6.18593568309055      6.74283974007628     -5.13785994606738
  H   -6.52672861094057      6.05820868731582     -4.51644294393243
  H   -4.27405806835335      9.18321901587733     -3.17917602062009
  O   -4.81637818910922      8.38179208078633     -3.08710321509104
  H   -4.34125365479592      7.86571159682267     -2.40212320997045
  H   -9.76894810389820      5.79793453665967     -4.45736688879398
  O   -10.32662296748380      4.98491423373594     -4.46101266615220
  H   -11.13858965497641      5.24553596111156     -4.90292239899134
  H   -8.56863319834914      7.51523846374376     -3.56338709857398
  O   -8.94235121706869      7.33555265531062     -4.44654392029195
  H   -8.14617114767245      7.30094881307707     -4.99929411068665
  O   -7.47973171542435      7.93269202669996     -2.05314224997001
  H   -7.33794414154279      7.27253028925052     -1.36779900069977
  H   -6.58776836086236      8.22821174086474     -2.30918355341413
