39
Coordinates from ORCA-job grain_mol_opt.QMRegion
  H   6.60716069877044     -1.22648956577119     -1.41151509073453
  O   5.89297402879175     -1.05929944767729     -0.79557493584476
  H   5.43938741489383     -1.91798273124449     -0.59758609736716
  H   7.93431464458545     -1.67252185374673     -4.01952786663140
  O   7.65077251475856     -1.36910461270636     -3.12889807504584
  H   7.15087887135262     -0.53173402457529     -3.32109902698720
  H   4.82899158169666     -6.32265030056934     -2.24152559759607
  O   5.16737384493700     -6.62882732627933     -3.11402303609271
  H   5.92012624709544     -7.21783205364463     -2.95601285845091
  H   8.78054607067027     -5.33676385907049     -3.79558998616550
  O   8.22594758642435     -5.67026350416766     -3.05970194150859
  H   8.17178938912607     -6.63355778227164     -3.12108505608258
  H   6.74730651033030     -4.08149325435407     -0.68177146437278
  O   7.14063248686635     -4.25866983830928      0.19817497898740
  H   8.06361592966527     -4.54518477506674     -0.03454507656887
  H   6.42548759213067     -5.84237450306787      0.72695580718489
  O   6.15792652352527     -6.62279770342615      1.26078466630257
  H   5.25317238920398     -6.39151311946670      1.55259824366940
  H   6.77462900156355     -2.92830119572371     -2.74497884227809
  O   6.31302810689297     -3.69644020328456     -2.35728677824008
  H   6.66615357191016     -4.48194030542747     -2.80742587234565
  H   9.34707652902023      0.40718296564817     -0.87600344144346
  O   8.64263556606649      0.71060853241532     -0.29906884909980
  H   8.35293589666860     -0.09053792366529      0.17510224722898
  H   7.69315072586839     -2.58824958762113      0.58638874983637
  O   8.24886148234076     -1.82870730524242      0.87744235857977
  H   8.30857606975128     -2.00182938827608      1.83277453027711
  H   6.65960150029486     -8.56296709845675     -1.60065754407667
  O   7.21555799632333     -8.39625321901363     -2.41420719329516
  H   7.27150147842249     -9.25491235364123     -2.84268410752043
  H   9.50638613379247     -1.98560444598785     -0.44356097375562
  O   9.91026331049481     -2.07401559743446     -1.33207246942836
  H   9.19715414770502     -1.79969556670614     -1.93137929917560
  H   10.45006322063172     -3.84789122651942     -4.35507724180128
  O   9.74359558789014     -4.24938460040373     -4.87197289645196
  H   9.23561262940147     -3.48855141696359     -5.21315250352979
  O   9.57894308125288     -4.88338156793491     -0.73460644510029
  H   9.18958342409532     -5.26997424366145     -1.54397882847953
  H   9.85302928454362     -3.99097149833201     -1.01981889665052
