30

H     6.236297     0.786373     4.677920
O     6.010760     1.359132     5.431479
H     6.272042     2.258629     5.151879
H     7.815453     0.513917     2.852276
O     6.951830     0.105268     3.083697
H     7.095596    -0.858372     3.144089
H     5.755133     0.056537     0.322512
O     5.567517     0.790768     0.940508
H     6.045094     0.544061     1.771808
H     9.449159     0.041385    -0.952356
O     8.707930     0.361384    -0.416541
H     8.357321    -0.471677    -0.041001
H     7.955021    -3.082942     0.400133
O     8.414354    -2.244354     0.634707
H     8.311756    -2.213031     1.596896
H     5.386861     3.640841     3.597191
O     6.070420     3.877289     4.251305
H     5.646755     4.583291     4.771571
H     6.071233     1.907298    -0.564137
O     6.664541     2.149526    -1.290248
H     7.462573     1.627702    -1.112562
H     4.587808     4.139817     1.648738
O     4.376861     3.216132     1.925637
H     5.075971     2.653128     1.572504
H     9.674682    -2.278752    -1.128052
O     9.905227    -1.859859    -1.968681
H     9.035493    -1.637744    -2.373047
N     9.097824     1.514840     2.124445
H     9.082594     1.245112     1.184819
H     8.808351     2.433687     2.134559
