603

H     0.196753     3.029682    -0.676907
O     0.719190     2.361006    -1.169932
H     1.657770     2.487621    -0.894202
H    -0.095302    -1.308690     3.152231
O     0.300296    -0.608929     2.609925
H    -0.175963     0.205333     2.842997
H    -2.404362     2.413373    -0.538859
O    -2.196890     1.942945     0.285883
H    -2.211211     0.995065     0.061544
H    -4.676781     0.552940     2.179626
O    -4.997905    -0.379291     2.188250
H    -4.484785    -0.856649     1.528010
H     0.050572    -0.310527     0.953714
O    -0.145468    -0.072090     0.026773
H     0.197743     0.823083    -0.092873
H    -0.174144    -3.587705     3.772154
O    -0.468290    -2.762312     4.192012
H     0.171181    -2.584993     4.898986
H    -4.894533     2.537912     1.324040
O    -4.257951     2.125625     1.939721
H    -3.413658     2.106962     1.429423
H    -3.249420     3.902386    -2.216010
O    -2.513675     3.303706    -1.983969
H    -2.153708     3.015671    -2.842926
H    -0.143781    -3.807330     0.506911
O     0.197931    -2.988322     0.920904
H    -0.588921    -2.502886     1.235474
H    -2.394770    -1.530288     2.471564
O    -2.201955    -1.989388     1.628203
H    -2.459522    -1.404443     0.897678
H     2.061135    -1.448538    -1.115455
O     2.291271    -1.701027    -0.197760
H     1.500994    -2.128141     0.185235
H    -1.399496     1.827847     1.911004
O    -1.495341     1.430228     2.786445
H    -1.479271     2.141518     3.452435
H     0.194645    -2.705571    -1.566449
O    -0.559335    -2.091891    -1.623603
H    -0.379821    -1.366818    -0.988221
H    -3.446601    -2.918140    -0.388241
O    -2.739248    -3.413060    -0.820686
H    -2.021816    -2.787469    -1.030017
H     2.757355     0.123607     2.939378
O     2.855312    -0.058765     3.901071
H     2.946823     0.833769     4.306038
H    -3.528728     6.385251    -0.547664
O    -3.288571     7.047262    -1.247816
H    -3.145604     7.892181    -0.777494
H     3.890217     0.576207     1.193360
O     2.939008     0.396897     1.307158
H     2.701519    -0.356179     0.728634
H    -5.788632     0.852980    -1.613132
O    -4.877850     1.177933    -1.484583
H    -4.987405     2.006774    -0.973202
H    -1.217006     5.398651     2.209123
O    -1.843286     4.652747     2.091572
H    -1.922403     4.233933     2.953983
H     3.486402     2.755963     0.431559
O     3.239832     2.713598    -0.508034
H     3.571563     1.870294    -0.857714
H     1.476036    -4.701134    -2.245908
O     1.540031    -3.922341    -1.674937
H     2.336767    -3.463550    -2.023568
H    -0.928028    -0.085183    -2.547053
O    -0.293962     0.567179    -2.871463
H    -0.032416     1.148702    -2.134209
H     1.679963    -4.689632    -0.174941
O     1.788442    -5.327548     0.566144
H     1.321539    -6.137352     0.271853
H    -1.236755    -3.265047    -2.878955
O    -1.067079    -3.948742    -3.540469
H    -0.939712    -4.795740    -3.071194
H    -2.792742     3.313620     4.701911
O    -1.811662     3.309712     4.668939
H    -1.520455     2.906652     5.505332
H     0.953240     5.032764     4.078258
O     0.007435     5.266564     4.128726
H    -0.465926     4.464070     4.386412
H    -1.745547    -4.648107    -0.371466
O    -0.980268    -5.196563    -0.104357
H    -1.323373    -5.868062     0.494755
H    -3.915193     5.837551    -2.603142
O    -4.267221     5.004288    -2.933783
H    -4.110172     4.969109    -3.901577
H    -2.379492    -3.615321     1.918206
O    -2.400546    -4.558478     2.169219
H    -1.469939    -4.779937     2.380916
H    -4.706579    -2.973184    -2.904979
O    -3.855195    -3.208920    -3.310677
H    -3.523449    -4.000865    -2.843088
H     0.323895     1.375476     4.617038
O     0.830754     2.135564     4.283209
H     0.880421     2.793870     4.990497
H    -4.666209    -5.166848    -1.572520
O    -5.369874    -4.818675    -0.995545
H    -5.159811    -5.171891    -0.115428
H     2.310623    -6.488075    -4.033185
O     1.972258    -6.158552    -3.180607
H     2.404458    -6.732702    -2.515963
H     0.455878    -3.381769    -4.002795
O     1.259563    -3.016199    -4.425244
H     0.942166    -2.644019    -5.274073
H     1.944584    -1.757037     2.986589
O     2.099880    -2.687627     2.768427
H     1.413519    -2.901573     2.101814
H    -3.023492    -1.805318    -3.213111
O    -2.601081    -0.919401    -3.147458
H    -3.254772    -0.272628    -3.468250
H    -3.194806     4.980407     1.075941
O    -3.975582     5.354731     0.620345
H    -4.390446     5.913627     1.325967
H     0.864817     2.251285     2.593574
O     0.967262     2.246861     1.622382
H     1.693315     1.622203     1.459415
H     0.189869     5.655624    -0.757327
O     0.712799     6.316723    -1.265867
H     0.855835     7.116212    -0.709878
H     0.339970     7.034896     2.591778
O    -0.021684     6.655174     1.773823
H     0.641474     5.983202     1.513572
H    -2.492340     0.221958     3.341075
O    -2.724049    -0.590716     3.843427
H    -1.965177    -0.644473     4.465519
H    -0.914223     0.552637     6.025347
O    -0.637336     0.037674     5.249370
H     0.071230    -0.570777     5.537771
H     0.689370    -4.997797     1.985729
O     0.150602    -5.101703     2.792320
H     0.283978    -6.023754     3.063864
H    -2.132572    -8.128669     0.384301
O    -1.782444    -7.687565     1.190915
H    -2.555079    -7.380222     1.670639
H    -0.375916     6.863362    -2.325491
O    -1.121148     7.284322    -2.825922
H    -1.911920     7.159429    -2.263158
H    -1.118198     4.310776     0.573341
O    -0.744331     4.371271    -0.322433
H    -1.450410     4.130174    -0.955546
H    -4.420886     2.754173     3.501935
O    -4.421541     2.925203     4.466289
H    -4.505472     2.042310     4.875768
H     1.999899    -3.585931     4.249213
O     1.935680    -4.058082     5.102265
H     2.440644    -3.521232     5.734053
H     4.669805    -3.204148     0.847790
O     4.511582    -3.127393    -0.119153
H     3.653055    -2.649519    -0.203520
H    -2.733006    -0.744803    -1.354344
O    -3.064486    -0.475036    -0.481494
H    -3.860772     0.055745    -0.690726
H    -1.622117    -0.759492    -4.631966
O    -1.114449    -0.544471    -5.435632
H    -0.403687     0.050697    -5.149727
H     1.785550    -1.719592    -3.372832
O     1.878257    -0.972158    -2.750634
H     1.101753    -0.394322    -2.882480
H     3.642776    -3.129286     2.557514
O     4.601629    -3.360066     2.485502
H     4.653723    -4.320396     2.612861
H     3.399499    -6.128475     3.130624
O     3.757868    -5.927824     2.231062
H     3.021396    -5.581478     1.687155
H    -3.346283     1.614854    -4.181969
O    -4.192687     1.145986    -3.992239
H    -4.410607     1.292801    -3.035957
H    -5.086232     4.155405     0.060761
O    -5.526833     3.290343    -0.043713
H    -6.456389     3.412070    -0.326548
H     6.722584    -1.195678    -1.351689
O     5.949573    -1.044172    -0.801524
H     5.528776    -1.911191    -0.603735
H     4.580289    -3.178364    -2.462227
O     3.713822    -3.005125    -2.880289
H     3.716989    -3.624822    -3.635611
H     4.412518    -2.301527     5.629133
O     4.069196    -2.765157     6.423056
H     4.400049    -3.671688     6.341324
H    -0.761610     6.338817     5.074630
O    -1.358169     6.915977     5.611616
H    -1.369196     7.792939     5.170062
H     4.688932    -0.145935    -1.458466
O     3.923030     0.397787    -1.723120
H     3.229867    -0.202000    -2.053132
H    -0.740810     4.523207    -4.037664
O    -1.522380     5.067529    -4.246943
H    -1.369912     5.934009    -3.824308
H     0.657378     3.201304    -2.656318
O     0.665862     3.577747    -3.565084
H     0.713317     2.813972    -4.150149
H    -5.362071    -5.051526     1.754429
O    -4.696113    -5.755275     1.510179
H    -3.831746    -5.284469     1.573929
H     7.872316    -1.706145    -4.021794
O     7.614098    -1.392197    -3.122604
H     7.128616    -0.547686    -3.279699
H     3.687874    -5.081527    -5.282902
O     4.450486    -4.708981    -4.801567
H     4.833023    -5.420267    -4.254586
H    -3.800446     0.025361     4.932420
O    -4.405147     0.490550     5.561828
H    -5.062904    -0.168821     5.855160
H     3.443754    -5.949669    -0.511397
O     4.316566    -5.703992    -0.830712
H     4.394612    -4.742036    -0.685952
H     4.993737    -0.346856    -4.152615
O     4.457612    -1.057149    -4.543303
H     4.129864    -1.640128    -3.825680
H    -1.176481     1.572341    -3.936901
O    -1.825705     2.193499    -4.324135
H    -1.465920     2.524635    -5.169696
H     4.864862    -6.332580    -2.306750
O     5.198752    -6.657920    -3.172025
H     6.015476    -7.140403    -2.983871
H     8.723653    -5.109540    -2.904928
O     8.030865    -5.525735    -2.347441
H     8.063709    -6.483202    -2.449016
H     2.334164     4.714262     0.455277
O     1.753401     4.697848     1.225291
H     1.394844     3.777881     1.303333
H    -4.436344    -2.548557     4.148725
O    -5.348693    -2.232726     3.967922
H    -5.218822    -1.438338     3.401416
H    -5.865667    -3.156568     1.231425
O    -6.330308    -3.724171     1.900354
H    -6.135812    -3.253239     2.737515
H     1.671646     3.465818     6.865298
O     1.050643     3.983161     6.330815
H     0.266905     4.136748     6.901146
H     4.980284    -2.178787     3.624186
O     5.001893    -1.459732     4.287492
H     4.190625    -0.902687     4.130352
H     2.362173    -5.581880     4.843529
O     2.742011    -6.465810     4.584373
H     1.995796    -7.045839     4.408981
H     2.246241    -4.522765    -6.785292
O     2.074595    -5.010786    -5.970004
H     1.810920    -4.319106    -5.314653
H     6.421090    -4.116254    -0.492325
O     7.173662    -4.519848    -0.028539
H     7.680796    -4.943913    -0.748573
H    -1.739519     4.493760     7.698941
O    -0.841260     4.590896     8.085834
H    -0.658688     5.549639     8.109886
H    -5.113270     5.700455    -5.603251
O    -4.507356     4.935632    -5.622744
H    -3.748679     5.148700    -6.187405
H     3.276110    -2.536407    -8.430982
O     3.186250    -3.068676    -7.629679
H     4.062316    -3.045951    -7.199486
H    -0.653636     8.826700    -2.280032
O    -0.530009     9.655181    -1.761366
H     0.231217     9.479634    -1.183508
H     2.044724    -0.917026     5.216190
O     1.469711    -1.442006     5.801913
H     1.562800    -1.096971     6.699340
H     5.197373    -2.036161    -5.684714
O     5.542692    -2.803104    -6.206401
H     5.267125    -3.592479    -5.688761
H     5.667361    -5.225326     4.695840
O     5.145086    -5.139203     5.522228
H     4.421794    -5.769219     5.436006
H    -3.993160     1.154026     7.002913
O    -3.802096     1.631383     7.846219
H    -4.677740     2.017320     8.106224
H    -1.845711     9.616980    -0.749345
O    -2.707070     9.492128    -0.276107
H    -3.316600     10.121625    -0.664897
H    -5.948468     4.698751    -2.946515
O    -6.857128     4.580426    -3.291251
H    -6.766821     3.878083    -3.968342
H     0.070814    -7.065414    -1.137973
O     0.535592    -7.504153    -0.393233
H    -0.142832    -7.696076     0.258044
H    -7.640393     3.803845    -1.983079
O    -7.904299     3.217072    -1.243620
H    -7.761640     2.308470    -1.583129
H     3.950001    -0.898719     6.993148
O     3.961038     0.065471     6.983988
H     4.774400     0.353240     6.553072
H     2.257692     5.790906    -1.177058
O     3.192671     5.497014    -1.061754
H     3.369361     4.956032    -1.854327
H     6.526604    -5.942587     0.683400
O     6.156275    -6.678313     1.216527
H     5.251973    -6.399600     1.443065
H    -3.882861     4.737317     7.775842
O    -3.316657     4.273735     7.117217
H    -3.510195     3.330314     7.228661
H     5.736362    -7.957080     0.148431
O     5.449020    -8.643487    -0.490171
H     4.619982    -8.317249    -0.884338
H    -0.575675     2.043564     7.692938
O    -1.208649     1.983012     6.957475
H    -2.077032     1.839301     7.353250
H    -6.395228    -0.108072     1.054595
O    -6.714948    -0.197740     0.141709
H    -7.636151    -0.459633     0.159764
H    -5.389566    -3.048292    -0.604301
O    -5.144191    -2.354589     0.032334
H    -5.705962    -1.574789    -0.154861
H     4.314476     5.569414     0.325409
O     4.647645     5.670219     1.230845
H     3.953227     6.181239     1.682351
H    -9.056327    -1.729148    -2.264582
O    -8.509757    -1.529193    -1.476980
H    -8.640792    -2.264469    -0.839631
H    -5.524241     3.478372    -5.534289
O    -6.043074     2.768361    -5.120167
H    -5.377550     2.182358    -4.705424
H     3.173521    -0.896842    -5.649417
O     2.318106    -1.015326    -6.116746
H     2.402899    -1.864808    -6.589457
H     8.106989    -1.366932    -6.017578
O     8.113325    -2.230839    -5.560983
H     7.256696    -2.629476    -5.812129
H     7.617774     0.974232    -6.299428
O     7.427925     0.126313    -6.713045
H     6.446545     0.077793    -6.750068
H    -7.881204    -3.679106     0.921660
O    -8.558796    -3.573358     0.237685
H    -8.460610    -4.331150    -0.366410
H    -2.406153     8.740947     1.288646
O    -2.257595     8.152296     2.042003
H    -1.487902     7.597881     1.820641
H    -4.449488     6.444061     3.490810
O    -4.618158     6.869858     2.633829
H    -3.853639     7.454565     2.494939
H     3.398795     3.438422    -3.572805
O     3.246903     4.408015    -3.480179
H     2.282260     4.474176    -3.588814
H    -6.125618    -1.597715    -3.447278
O    -6.212229    -2.176485    -2.662846
H    -6.996128    -1.865153    -2.156735
H     6.451080     1.038876     4.748576
O     6.057477     1.578851     5.450837
H     6.247206     2.497010     5.159507
H     1.359138     1.716866    -5.820176
O     1.162072     1.121563    -5.066223
H     1.525256     0.257947    -5.334777
H    -2.510146     2.971122     10.481018
O    -2.299075     2.062962     10.208953
H    -2.895587     1.863471     9.475571
H     7.610035    -0.511466     3.094634
O     6.860912     0.065814     3.261963
H     6.166900    -0.533214     3.640832
H    -5.691077    -8.105075    -0.774278
O    -5.014442    -8.180680    -0.062158
H    -4.985565    -7.308012     0.364100
H    -5.184750    -0.112341    -4.719486
O    -5.803555    -0.823302    -4.957779
H    -6.639934    -0.379676    -5.159021
H     1.886187    -0.205155    -7.511202
O     1.686107     0.266598    -8.355621
H     2.263084    -0.139769    -9.007763
H     4.868425    -1.405852    -9.296122
O     3.944036    -1.175414    -9.579773
H     3.924938    -1.293913    -10.528744
H     7.541288    -2.583557     4.211614
O     7.689822    -2.620342     3.252396
H     7.195098    -3.410290     2.980233
H     6.694505    -5.906867     2.696527
O     6.757048    -5.231071     3.396965
H     7.631951    -5.318013     3.816267
H    -1.822411     8.951639     3.493236
O    -1.575419     9.256585     4.391662
H    -2.424552     9.390274     4.846146
H    -7.393575     1.578290    -5.258848
O    -7.970158     0.835418    -5.013757
H    -8.871207     1.237057    -4.939407
H     6.921649    -1.099155    -8.394107
O     6.338749    -1.819262    -8.658278
H     6.109136    -2.268472    -7.826401
H    -1.669971     6.241135    -7.025337
O    -2.069884     5.416867    -6.751702
H    -1.822400     5.285952    -5.787752
H    -0.017519     3.313983     9.023650
O     0.178378     2.394418     9.280082
H    -0.621123     2.131099     9.784988
H     6.742025    -2.793573    -2.694258
O     6.209741    -3.536775    -2.354049
H     6.677394    -4.348556    -2.598928
H    -4.089057    -3.067835    -4.946843
O    -4.243708    -2.955770    -5.911583
H    -4.788295    -2.161025    -5.968566
H     1.960523     2.182591     8.468407
O     2.625668     2.294014     7.779383
H     3.046163     1.422804     7.664564
H    -6.928570    -5.189790    -1.403637
O    -7.844700    -5.455268    -1.647372
H    -7.976502    -5.054166    -2.531841
H    -3.837572     5.265133     5.692335
O    -3.803196     6.033268     5.101111
H    -2.868770     6.326016     5.196087
H    -7.895814     0.101529    -1.975231
O    -7.403362     0.823368    -2.388164
H    -7.630424     0.813262    -3.341830
H     5.824361     0.119114     0.420930
O     5.603329     0.841674     1.040920
H     6.111844     0.645644     1.854805
H    -6.232160     3.325508     7.388334
O    -6.106872     2.807918     8.217796
H    -6.707173     2.046988     8.129571
H     2.253620    -8.078060    -0.834329
O     2.930535    -8.067125    -1.531031
H     2.704481    -8.781673    -2.142959
H    -2.756754    -3.959540    -6.197275
O    -2.005529    -4.528006    -5.963646
H    -1.728701    -4.235969    -5.066586
H    -5.656382     3.773419     5.302977
O    -6.306829     4.171370     5.918038
H    -6.139968     5.114875     5.906298
H    -1.039830    -7.113675    -3.162594
O    -0.569034    -6.443155    -2.634860
H     0.340916    -6.377317    -3.010339
H     4.428778     2.010193     5.135737
O     3.488021     2.252160     5.014336
H     3.102379     2.268114     5.895669
H     4.097123     4.651994     6.306360
O     4.180061     5.381835     5.688167
H     3.612863     5.141877     4.916765
H     2.753328     3.613923     3.927285
O     2.577897     4.554309     3.760289
H     2.459684     4.652292     2.793724
H     9.382541     0.193023    -1.057865
O     8.576138     0.357908    -0.565617
H     8.398064    -0.460237    -0.072080
H    -2.117494     5.329565     10.647981
O    -2.841254     4.702814     10.878736
H    -3.059629     4.880243     11.793855
H     7.954498    -3.023845     0.340347
O     8.377076    -2.177858     0.595550
H     8.309759    -2.172412     1.557788
H     5.359909     3.656392     3.532464
O     6.016237     3.921656     4.198637
H     5.603824     4.639978     4.700202
H    -4.224971     5.034998     9.779682
O    -4.857467     5.186493     9.057207
H    -5.469975     4.438442     9.054468
H    -7.025681    -3.466274    -3.491704
O    -7.646180    -4.080017    -3.937671
H    -7.125304    -4.522420    -4.640181
H     0.012125     6.133506     10.770594
O    -0.851316     6.467099     10.522262
H    -0.733540     6.896596     9.655682
H     2.584110     1.488853    -4.100554
O     3.462797     1.840333    -3.861491
H     3.781396     1.325161    -3.090178
H    -6.993238    -0.205923     7.213484
O    -7.501247     0.572841     7.492983
H    -8.123032     0.758833     6.788293
H    -2.773772    -9.869004    -0.822800
O    -2.710839    -8.927326    -0.982159
H    -3.610306    -8.557913    -0.743456
H    -10.070147     3.091755    -4.910119
O    -10.189207     2.174808    -4.628444
H    -10.405792     2.260625    -3.679003
H    -2.087554    -3.109706     4.580918
O    -2.984874    -3.379243     4.880017
H    -3.138966    -4.275131     4.527260
H    -0.205200    -7.979092     2.498281
O     0.624319    -7.771647     2.942475
H     1.337986    -8.069948     2.352170
H     6.680738    -2.385520     6.403709
O     7.129788    -3.096199     5.941139
H     6.498354    -3.829818     5.902126
H    -5.336066    -1.980916     6.979976
O    -6.006921    -1.492443     6.477692
H    -5.949704    -1.839969     5.563576
H     0.837244     3.027947    -7.112997
O     1.754317     2.695589    -7.168169
H     1.739843     1.947535    -7.793361
H    -3.959691     8.767657     6.666162
O    -3.957618     8.764846     5.708787
H    -4.083529     7.837160     5.441741
H    -2.050931     10.316733    -2.742283
O    -2.951870     10.499715    -3.045449
H    -2.878070     11.133264    -3.758500
H     9.385454    -4.076151     4.059525
O     9.104709    -4.753647     4.682324
H     8.674171    -4.280541     5.405381
H    -0.751329    -5.998245    -5.837107
O    -0.049672    -6.566545    -5.503018
H     0.787244    -6.106642    -5.718800
H     1.826668     8.272501     0.664712
O     1.524908     8.594530    -0.213379
H     2.340259     8.630614    -0.742956
H     3.498606     2.920448    -6.657502
O     4.325264     2.628927    -6.247300
H     4.078648     2.356041    -5.338485
H     3.734633     7.117773    -1.226808
O     3.942289     8.053019    -1.440751
H     4.312482     7.995548    -2.333577
H     4.391300    -0.018907    -7.904884
O     4.767779     0.127075    -7.035171
H     4.587545     1.059416    -6.792110
H     6.021860     1.921616    -0.467369
O     6.588269     2.113608    -1.228701
H     7.411712     1.632448    -1.033615
H     6.658078    -8.443897    -1.593624
O     7.295529    -8.235109    -2.329705
H     7.661083    -9.070370    -2.616042
H    -5.317849    -5.781309    -5.409237
O    -5.934530    -5.108075    -5.722538
H    -5.381904    -4.341238    -5.960865
H     0.673741     7.176384     7.600607
O    -0.228143     7.206493     7.959085
H    -0.782713     7.221168     7.141005
H    -8.910721    -2.819330    -4.110015
O    -9.429363    -2.009948    -3.941724
H    -9.142853    -1.345363    -4.572018
H    -2.432144    -5.982183    -2.139863
O    -3.311761    -5.698994    -2.408576
H    -3.495227    -6.071498    -3.296221
H    -3.004229    -5.896870    -5.407005
O    -3.605966    -6.504903    -4.934533
H    -3.125778    -7.326253    -4.767642
H    -1.388816     3.726357    -6.984257
O    -0.850341     2.969704    -6.712388
H    -1.087914     2.184716    -7.262205
H    -0.206785     0.414445    -8.214488
O    -1.102870     0.651150    -7.932325
H    -1.279431     0.128499    -7.134069
H    -10.425791     4.071263    -2.746106
O    -10.494784     3.292757    -2.177902
H    -9.665925     3.265850    -1.668132
H     4.573051     4.073055     1.725876
O     4.362279     3.152704     2.004223
H     5.077409     2.575090     1.724521
H     6.480257     1.384612    -4.210733
O     6.175151     0.761375    -3.516977
H     6.206038     1.256953    -2.673202
H     9.617131    -2.244113    -0.915422
O     9.895239    -2.030486    -1.814965
H     9.095887    -1.690673    -2.259388
H     9.953985    -3.340430    -3.083657
O     9.686935    -3.992167    -3.758895
H     9.294611    -3.484179    -4.479620
H    -7.723605    -8.563052    -1.671833
O    -6.984205    -7.967226    -1.781941
H    -7.363543    -7.055481    -1.785757
H     4.162997     6.071922    -3.816938
O     4.825195     6.772139    -3.731964
H     5.660425     6.316851    -3.592935
H     0.075978    -8.172932    -5.209395
O     0.096300    -9.155850    -5.077009
H     0.248995    -9.520457    -5.948841
H    -2.356336    -8.670790    -2.711536
O    -2.125427    -8.408875    -3.622027
H    -1.477110    -9.026149    -3.980116
H     2.154609    -10.822189    -3.485200
O     2.110972    -9.867488    -3.463152
H     1.325914    -9.595631    -3.989024
H     6.833963     3.316358    -4.566392
O     6.891874     2.637940    -5.267063
H     6.099080     2.771977    -5.808519
H    -3.385586    -3.548291     7.986442
O    -3.693005    -2.887906     7.362035
H    -3.343942    -3.156612     6.471773
H    -0.649257    -3.364023    -6.721722
O    -0.018121    -2.633467    -6.729396
H    -0.498515    -1.857043    -6.388055
H     0.619199     0.464475     8.755680
O     0.626789    -0.250064     8.114950
H    -0.296058    -0.537772     8.026085
H    -5.829020     7.377741    -4.259628
O    -6.332675     6.759479    -4.820739
H    -6.621443     6.029524    -4.229362
H    -4.271971     9.110378    -3.270640
O    -4.809168     8.315224    -3.164437
H    -4.402244     7.835482    -2.424814
H    -9.709162     5.813142    -4.657393
O    -10.244154     5.009399    -4.494288
H    -11.123969     5.211942    -4.814213
H     2.760247     6.514218     6.142355
O     1.800203     6.612647     6.238918
H     1.455246     5.699631     6.137083
H     4.805749     8.539327     0.087344
O     5.122311     8.540299     1.008553
H     5.527221     7.675204     1.140594
H     4.121480    -7.435070    -4.332420
O     3.363773    -7.719111    -4.875754
H     3.081585    -8.559146    -4.498948
H     0.374768     8.661862     4.232883
O     1.051668     8.016090     4.005661
H     1.276438     7.523022     4.820745
H     5.233429     4.180842    -3.151754
O     6.194770     4.149288    -3.097995
H     6.401842     3.567761    -2.349661
H    -2.597770    -1.533237     7.577422
O    -2.086495    -0.737803     7.793774
H    -2.713394    -0.113858     8.169065
H    -9.022193     7.952509    -4.158510
O    -8.959328     7.366759    -4.914422
H    -8.002315     7.201445    -5.048759
H     3.504021    -8.985035     1.100296
O     2.826640    -8.352315     1.344318
H     3.299817    -7.547673     1.628435
H     3.583705     8.167277     1.831514
O     2.791870     7.605510     1.942931
H     2.345380     7.842023     2.768697
N    -4.169865    -5.969608     4.363802
H    -5.006444    -5.936628     4.836849
H    -4.421213    -6.026509     3.423322
