27

H    -0.672980     6.306011     4.960364
O    -1.275923     6.885029     5.501399
H    -1.283169     7.761019     5.031895
H    -1.693125     4.432125     7.663951
O    -0.804224     4.556513     8.075069
H    -0.621201     5.511293     8.047824
H    -1.792328     8.955980     3.462935
O    -1.521466     9.272920     4.354840
H    -2.375674     9.308826     4.849538
H    -3.767629     5.245677     5.746432
O    -3.803438     6.039299     5.186500
H    -2.862068     6.314560     5.182467
H     0.038938     5.831826     10.644996
O    -0.726761     6.415051     10.675264
H    -0.727992     6.845219     9.807535
H    -3.331168     8.961494     6.793329
O    -3.770050     8.918547     5.924085
H    -3.990926     7.978115     5.808781
H     0.702523     7.232000     7.541331
O    -0.228300     7.244872     7.826091
H    -0.687996     7.126371     6.932360
H     0.574089     8.687861     4.286943
O     1.214743     8.007448     4.054504
H     1.418775     7.511654     4.871939
N    -2.131756     9.297047     8.280349
H    -1.848215     10.203761     8.130302
H    -1.331316     8.760116     8.135595
