39

H    -3.779970     0.044864     4.878357
O    -4.370181     0.501379     5.534228
H    -5.068571    -0.140773     5.737751
H    -4.034070     1.267170     7.004351
O    -3.911442     1.939349     7.719521
H    -4.820967     2.251322     7.952692
H    -3.887762     4.960971     7.774830
O    -3.318485     4.516610     7.105366
H    -3.549400     3.568072     7.159416
H    -0.618746     2.168057     7.645141
O    -1.226357     2.004041     6.905004
H    -2.070719     1.783697     7.310371
H    -2.703077     3.071534     10.450861
O    -2.522576     2.160901     10.150674
H    -2.998187     2.090953     9.297647
H    -0.152504     3.439810     8.991366
O     0.132101     2.539175     9.262756
H    -0.641292     2.229383     9.769269
H    -6.449267     3.440480     7.326704
O    -6.271462     3.031620     8.212437
H    -6.841862     2.255226     8.288100
H    -6.520108    -0.424356     7.786610
O    -6.610311     0.117448     8.596726
H    -7.306137    -0.324435     9.092390
H    -5.216989    -2.089118     6.832427
O    -5.977130    -1.581493     6.481150
H    -6.041448    -1.906034     5.556690
H    -3.591034    -3.767937     7.631439
O    -3.601560    -2.967547     7.099104
H    -3.390405    -3.266186     6.184591
H     0.718419     0.509754     8.410030
O     0.738830    -0.434956     8.226851
H    -0.207677    -0.672157     8.175803
H    -2.407851    -1.533135     7.584277
O    -2.043953    -0.737480     7.999233
H    -2.636926    -0.616466     8.766297
N    -3.928853    -0.391019     10.094276
H    -3.610777     0.450938     10.458463
H    -4.754205    -0.162071     9.639268
