30
Coordinates from ORCA-job grain_mol_opt.QMRegion
  H   -4.89399787626243      2.47463922930873      1.39986107420401
  O   -4.20478413730794      2.09933017555589      1.99362326147391
  H   -3.40083401994606      2.05400400680432      1.42057187060719
  H   -1.12938001370585      5.45443521745464      2.14501719193797
  O   -1.76240173353141      4.70501111634028      2.06057457979157
  H   -1.62288234310677      4.17134666912132      2.85168776202538
  H   -2.70393034984708      3.26317455827646      4.77686213109510
  O   -1.72544150516582      3.24726411566999      4.70289316537587
  H   -1.40714630176691      2.80941837802143      5.51620660568944
  H   -3.11628407224610      4.94204999392680      0.99052941319065
  O   -3.92623321537502      5.28743571251254      0.55841230901914
  H   -4.28567432963339      5.83696039353533      1.29583859163287
  H   -4.40512382420842      2.77736143066851      3.62103665785754
  O   -4.39251154074778      2.87528352412216      4.60264043703431
  H   -4.46011987704198      1.95079518931183      4.92951791790787
  H   -5.08573433003861      4.05978984929830     -0.00238873386258
  O   -5.54208827777308      3.19481720746405     -0.04186489003983
  H   -6.47812708605166      3.30786217792405     -0.30826784428107
  H   -4.26937964065847      6.36705347636750      3.49815581169503
  O   -4.54789601872080      6.80043335491664      2.66501149057214
  H   -3.80955106897746      7.41353218771242      2.48374310326434
  H   -3.74535344740363      5.28814992238027      5.79613282795889
  O   -3.73588130939618      6.04911541291262      5.18928748733640
  H   -2.80610456222953      6.36709190237422      5.31378156562643
  H   -5.67806487090560      3.70886765122804      5.34395216710533
  O   -6.43838987351386      4.09838110439850      5.84509647767328
  H   -6.16758812229678      4.99690733890716      6.05738966110210
  O   -6.49200329387294      4.46333708096667      2.74416242827282
  H   -6.89550566072702      4.44437658744942      3.61977484172575
  H   -6.21816850971387      5.38069028154151      2.63021810747954
