603

H     0.203620     3.041577    -0.641652
O     0.728081     2.373479    -1.133604
H     1.666229     2.503640    -0.859910
H    -0.074609    -1.311924     3.169962
O     0.318541    -0.608626     2.630396
H    -0.161045     0.203154     2.865644
H    -2.394917     2.422623    -0.501570
O    -2.184282     1.947328     0.320018
H    -2.202105     1.000734     0.089571
H    -4.660788     0.546708     2.205253
O    -4.976798    -0.387061     2.215647
H    -4.473603    -0.861430     1.545672
H     0.067719    -0.303611     0.975800
O    -0.129565    -0.063939     0.049806
H     0.208823     0.833452    -0.068341
H    -0.153885    -3.584702     3.787067
O    -0.432675    -2.756453     4.211310
H     0.213026    -2.589670     4.914350
H    -4.883927     2.534897     1.362714
O    -4.244651     2.122092     1.975922
H    -3.402410     2.105898     1.462103
H    -3.241538     3.921393    -2.171391
O    -2.508841     3.316716    -1.942531
H    -2.147670     3.037049    -2.803742
H    -0.121787    -3.798317     0.511911
O     0.217863    -2.982824     0.933925
H    -0.569929    -2.497433     1.246340
H    -2.376749    -1.540499     2.485629
O    -2.186199    -2.002833     1.643209
H    -2.444708    -1.413184     0.915652
H     2.077028    -1.429763    -1.100868
O     2.307989    -1.686569    -0.184202
H     1.518396    -2.116007     0.196827
H    -1.391733     1.823909     1.942366
O    -1.480410     1.424168     2.817947
H    -1.465980     2.134641     3.484530
H     0.213063    -2.688087    -1.556596
O    -0.542857    -2.076695    -1.608732
H    -0.363902    -1.352423    -0.972351
H    -3.433609    -2.915423    -0.381733
O    -2.715377    -3.405911    -0.802761
H    -2.005664    -2.774008    -1.018976
H     2.772889     0.124222     2.960750
O     2.871905    -0.061790     3.921868
H     2.962306     0.829403     4.329936
H    -3.515613     6.389701    -0.493119
O    -3.229257     7.033447    -1.191831
H    -3.055600     7.888421    -0.748409
H     3.903286     0.585853     1.215582
O     2.952507     0.405017     1.330439
H     2.714963    -0.344761     0.747551
H    -5.777202     0.859022    -1.580649
O    -4.866927     1.185138    -1.450328
H    -4.978420     2.012146    -0.936521
H    -1.210917     5.399422     2.263185
O    -1.831775     4.652354     2.136692
H    -1.914161     4.225989     2.995062
H     3.496442     2.767591     0.465876
O     3.250587     2.733220    -0.473933
H     3.581170     1.892079    -0.830067
H     1.495804    -4.678490    -2.245388
O     1.560439    -3.904122    -1.668387
H     2.354938    -3.441168    -2.017351
H    -0.918045    -0.065193    -2.525847
O    -0.281382     0.587085    -2.845389
H    -0.023219     1.167013    -2.105940
H     1.702556    -4.676491    -0.173740
O     1.809032    -5.316797     0.566239
H     1.345698    -6.126593     0.266349
H    -1.221834    -3.244331    -2.870858
O    -1.047272    -3.925276    -3.533869
H    -0.921614    -4.773946    -3.068013
H    -2.780404     3.297943     4.739733
O    -1.798822     3.299428     4.707738
H    -1.506777     2.891346     5.541176
H     0.963609     5.025095     4.122661
O     0.018022     5.261092     4.173399
H    -0.456950     4.457770     4.426279
H    -1.726664    -4.640464    -0.368029
O    -0.961808    -5.182640    -0.084768
H    -1.310096    -5.872154     0.489854
H    -3.900035     5.855397    -2.551758
O    -4.260561     5.025024    -2.881026
H    -4.105865     4.992217    -3.849306
H    -2.428945    -3.689151     1.942831
O    -2.447573    -4.594734     2.315369
H    -1.507909    -4.833597     2.455075
H    -4.690574    -2.958499    -2.890547
O    -3.837827    -3.189931    -3.296882
H    -3.507485    -3.985455    -2.834618
H     0.339017     1.365327     4.645261
O     0.844786     2.127824     4.316309
H     0.892277     2.782909     5.026637
H    -4.650900    -5.155111    -1.571818
O    -5.353096    -4.804460    -0.996837
H    -5.140333    -5.162573    -0.114153
H     2.332029    -6.454970    -4.042323
O     1.994747    -6.130339    -3.187354
H     2.428851    -6.707181    -2.526591
H     0.472433    -3.352848    -3.995411
O     1.275614    -2.984404    -4.416336
H     0.956591    -2.608676    -5.263239
H     1.964042    -1.757717     2.999805
O     2.119998    -2.687635     2.778986
H     1.434768    -2.898748     2.110404
H    -3.010234    -1.785817    -3.195072
O    -2.587653    -0.900071    -3.125141
H    -3.242315    -0.252168    -3.442835
H    -3.189234     4.983330     1.117181
O    -3.965053     5.362917     0.659436
H    -4.391865     5.907188     1.367014
H     0.877509     2.251485     2.626508
O     0.980438     2.254513     1.655641
H     1.705349     1.629961     1.487571
H     0.191594     5.579465    -0.795838
O     0.706982     6.291147    -1.248615
H     0.862173     7.017134    -0.607254
H     0.294028     6.900944     2.739961
O    -0.013320     6.597908     1.868252
H     0.643842     5.910027     1.622050
H    -2.479736     0.209672     3.364924
O    -2.701554    -0.606318     3.866607
H    -1.941102    -0.648797     4.488049
H    -0.894981     0.536296     6.052060
O    -0.619954     0.021392     5.275078
H     0.092900    -0.584166     5.559119
H     0.711139    -4.994460     1.983370
O     0.168879    -5.107456     2.787378
H     0.313258    -6.029327     3.055328
H    -2.115934    -8.081816     0.436033
O    -1.794071    -7.597495     1.223723
H    -2.580736    -7.288033     1.680363
H    -0.319750     6.990210    -2.391817
O    -1.090468     7.352010    -2.887338
H    -1.831934     7.189874    -2.261970
H    -1.109253     4.321506     0.608170
O    -0.736158     4.382090    -0.287702
H    -1.445042     4.142188    -0.919428
H    -4.408572     2.740934     3.540462
O    -4.405982     2.907188     4.505981
H    -4.490629     2.022405     4.911104
H     2.023665    -3.592829     4.254297
O     1.959527    -4.068600     5.105560
H     2.466273    -3.534663     5.738702
H     4.689875    -3.190043     0.852237
O     4.530090    -3.109946    -0.113952
H     3.671058    -2.632495    -0.195827
H    -2.719438    -0.733233    -1.332072
O    -3.047461    -0.467466    -0.456494
H    -3.847650     0.059683    -0.661980
H    -1.611310    -0.731517    -4.611148
O    -1.102886    -0.513447    -5.413491
H    -0.394518     0.083449    -5.125606
H     1.799831    -1.691260    -3.358877
O     1.891893    -0.947642    -2.731935
H     1.114378    -0.369865    -2.860842
H     3.663827    -3.125113     2.563463
O     4.622982    -3.353704     2.490267
H     4.677388    -4.314519     2.612332
H     3.426826    -6.126710     3.122951
O     3.783116    -5.921685     2.223972
H     3.045795    -5.574144     1.681954
H    -3.338670     1.638103    -4.148236
O    -4.182361     1.164367    -3.959200
H    -4.401209     1.308391    -3.002836
H    -5.077429     4.158256     0.099951
O    -5.517567     3.292262     0.001342
H    -6.447284     3.411934    -0.282942
H     6.736861    -1.167996    -1.340200
O     5.964725    -1.020633    -0.787601
H     5.545433    -1.889222    -0.594288
H     4.597676    -3.150160    -2.457494
O     3.729954    -2.976969    -2.872899
H     3.733415    -3.592142    -3.631976
H     4.433724    -2.310356     5.638884
O     4.090670    -2.778990     6.430156
H     4.425253    -3.683809     6.344551
H    -0.754699     6.324919     5.121445
O    -1.349777     6.905289     5.657189
H    -1.371556     7.775105     5.204678
H     4.701007    -0.121364    -1.440001
O     3.933785     0.422539    -1.699965
H     3.241494    -0.176328    -2.033855
H    -0.737745     4.551871    -3.993423
O    -1.523619     5.091563    -4.193572
H    -1.366257     5.960592    -3.774424
H     0.664720     3.222194    -2.620078
O     0.676797     3.603395    -3.526003
H     0.719497     2.843425    -4.116188
H    -5.382104    -5.192977     1.793138
O    -4.685182    -5.786480     1.436237
H    -3.844898    -5.371331     1.708729
H     7.885524    -1.664765    -4.012868
O     7.627463    -1.355329    -3.111896
H     7.140582    -0.510860    -3.265137
H     3.705771    -5.040430    -5.286206
O     4.468319    -4.669688    -4.803100
H     4.852096    -5.383364    -4.260397
H    -3.784876     0.005924     4.957168
O    -4.385385     0.467325     5.592098
H    -5.046156    -0.191872     5.880229
H     3.466307    -5.931919    -0.519329
O     4.339494    -5.683783    -0.835173
H     4.415701    -4.722009    -0.687901
H     5.004809    -0.309516    -4.134922
O     4.470112    -1.019492    -4.528050
H     4.143144    -1.605637    -3.812922
H    -1.166948     1.598274    -3.907262
O    -1.818255     2.219503    -4.289594
H    -1.460884     2.557676    -5.133504
H     4.887793    -6.304263    -2.315683
O     5.221132    -6.625429    -3.182536
H     6.038841    -7.107478    -2.997456
H     8.743433    -5.071917    -2.912201
O     8.051982    -5.492115    -2.355930
H     8.086542    -6.448952    -2.462366
H     2.334672     4.726739     0.495054
O     1.760533     4.709714     1.270249
H     1.401744     3.789308     1.344984
H    -4.415921    -2.643891     4.242197
O    -5.309722    -2.303059     4.041329
H    -5.172418    -1.519896     3.468588
H    -5.844694    -3.193089     1.325064
O    -6.307519    -3.753037     1.991094
H    -6.119900    -3.320813     2.843406
H     1.685094     3.449236     6.901450
O     1.062356     3.968519     6.370847
H     0.278585     4.116432     6.942747
H     5.000406    -2.177639     3.634044
O     5.020595    -1.461983     4.301124
H     4.208960    -0.905041     4.146164
H     2.389305    -5.589804     4.840040
O     2.769755    -6.472398     4.576647
H     2.024977    -7.053194     4.398986
H     2.261962    -4.478545    -6.784437
O     2.092870    -4.970306    -5.970821
H     1.827423    -4.281795    -5.312770
H     6.441721    -4.093541    -0.493974
O     7.194687    -4.498627    -0.032042
H     7.702186    -4.918398    -0.754428
H    -1.728151     4.464204     7.744396
O    -0.828936     4.563782     8.129256
H    -0.651152     5.523065     8.157592
H    -5.113616     5.726618    -5.547984
O    -4.506956     4.962143    -5.573333
H    -3.748026     5.181544    -6.135427
H     3.287038    -2.482921    -8.421832
O     3.199470    -3.019331    -7.622990
H     4.075844    -2.996454    -7.193713
H    -0.845102     9.076311    -3.202753
O    -0.805855     10.059249    -3.275342
H    -0.344865     10.333681    -2.468016
H     2.065347    -0.926743     5.232943
O     1.492250    -1.454812     5.818094
H     1.585995    -1.113410     6.716762
H     5.210335    -1.991615    -5.674932
O     5.557182    -2.755639    -6.199809
H     5.282613    -3.547789    -5.686041
H     5.694138    -5.227340     4.690670
O     5.171650    -5.145646     5.517543
H     4.450250    -5.777396     5.429172
H    -3.975895     1.125369     7.034221
O    -3.783949     1.598183     7.879926
H    -4.660383     1.982166     8.142224
H    -1.672636     9.850299    -0.321694
O    -2.607453     9.555514    -0.271437
H    -3.062921     10.094351    -0.947921
H    -5.943315     4.713553    -2.897244
O    -6.852564     4.590749    -3.238691
H    -6.761462     3.893875    -3.921093
H     0.096801    -7.051374    -1.149180
O     0.560632    -7.490396    -0.402966
H    -0.119016    -7.688043     0.244555
H    -7.633720     3.808394    -1.935364
O    -7.896134     3.217607    -1.198234
H    -7.753031     2.310875    -1.542497
H     3.970247    -0.913925     7.009383
O     3.979513     0.050296     7.004547
H     4.792121     0.341246     6.574258
H     2.248538     5.817983    -1.139012
O     3.182133     5.520028    -1.016752
H     3.363980     4.981614    -1.811121
H     6.551533    -5.925096     0.673859
O     6.182676    -6.663443     1.204591
H     5.277979    -6.387204     1.431885
H    -3.870711     4.704644     7.823945
O    -3.302603     4.245020     7.163891
H    -3.496738     3.301049     7.269121
H     5.763140    -7.938682     0.131137
O     5.475512    -8.623298    -0.509131
H     4.646546    -8.296119    -0.902511
H    -0.560005     2.017629     7.725891
O    -1.192717     1.958678     6.989976
H    -2.061393     1.813669     7.384961
H    -6.383370    -0.116860     1.084285
O    -6.701179    -0.198305     0.170523
H    -7.620407    -0.467656     0.185118
H    -5.370225    -3.052595    -0.579184
O    -5.118289    -2.353577     0.050241
H    -5.688026    -1.579605    -0.134254
H     4.317990     5.578071     0.365577
O     4.686246     5.660167     1.258913
H     4.009501     6.151532     1.756167
H    -9.041466    -1.727236    -2.239871
O    -8.494162    -1.529259    -1.452524
H    -8.621764    -2.268694    -0.818278
H    -5.520419     3.505192    -5.490013
O    -6.037304     2.790517    -5.080786
H    -5.370450     2.204231    -4.669420
H     3.184416    -0.856291    -5.633226
O     2.328701    -0.974610    -6.099632
H     2.414256    -1.821456    -6.576785
H     8.118402    -1.315870    -6.006799
O     8.126554    -2.181746    -5.553885
H     7.270407    -2.580643    -5.806552
H     7.624460     1.026085    -6.278360
O     7.435965     0.179172    -6.694597
H     6.454572     0.129468    -6.732051
H    -7.859360    -3.688605     0.935835
O    -8.537942    -3.579188     0.252062
H    -8.439080    -4.335663    -0.353219
H    -2.526615     8.776953     1.360485
O    -2.338217     8.145835     2.072722
H    -1.613893     7.570647     1.775934
H    -4.449918     6.422772     3.551204
O    -4.632458     6.846817     2.696409
H    -3.877214     7.438712     2.545013
H     3.404334     3.470801    -3.533646
O     3.251581     4.439574    -3.433301
H     2.287106     4.505171    -3.547191
H    -6.112783    -1.582251    -3.426989
O    -6.196240    -2.165226    -2.645678
H    -6.980090    -1.859756    -2.135869
H     6.466417     1.037169     4.771598
O     6.072343     1.573709     5.476291
H     6.261153     2.493256     5.188975
H     1.365070     1.755705    -5.790235
O     1.171830     1.156569    -5.037991
H     1.534349     0.294539    -5.312023
H    -2.493610     2.928322     10.519720
O    -2.280510     2.022226     10.242355
H    -2.877987     1.825238     9.509020
H     7.626790    -0.503915     3.109552
O     6.877028     0.071333     3.281090
H     6.184384    -0.530733     3.657233
H    -5.657731    -8.042508    -0.712231
O    -4.923123    -8.113902    -0.065783
H    -4.927105    -7.298693     0.459436
H    -5.174196    -0.090371    -4.693186
O    -5.791338    -0.801175    -4.935876
H    -6.629118    -0.358252    -5.132925
H     1.894012    -0.158063    -7.490695
O     1.693346     0.317016    -8.332826
H     2.270027    -0.085926    -8.987275
H     4.877353    -1.346037    -9.283449
O     3.952184    -1.116385    -9.564704
H     3.932153    -1.229143    -10.514362
H     7.562858    -2.581286     4.217083
O     7.709900    -2.612763     3.257470
H     7.217073    -3.402671     2.981865
H     6.720027    -5.898179     2.687203
O     6.781753    -5.226085     3.391387
H     7.657445    -5.313350     3.809081
H    -1.844075     8.926678     3.500602
O    -1.581894     9.232411     4.394421
H    -2.422808     9.365653     4.864297
H    -7.386321     1.598964    -5.222562
O    -7.961296     0.853729    -4.980766
H    -8.863090     1.253072    -4.903779
H     6.930636    -1.039015    -8.381350
O     6.349388    -1.759461    -8.648170
H     6.120891    -2.212460    -7.818099
H    -1.679424     6.285166    -6.965184
O    -2.066983     5.452395    -6.699037
H    -1.822873     5.321351    -5.734063
H    -0.002572     3.283351     9.061743
O     0.194660     2.362793     9.313406
H    -0.604142     2.096038     9.817827
H     6.758291    -2.760025    -2.689476
O     6.227926    -3.505635    -2.351306
H     6.695922    -4.315506    -2.601767
H    -4.074527    -3.042994    -4.933212
O    -4.228356    -2.926912    -5.897634
H    -4.775199    -2.133347    -5.951131
H     1.976114     2.158142     8.499333
O     2.640309     2.273485     7.810041
H     3.062730     1.403696     7.691675
H    -6.906180    -5.186763    -1.394986
O    -7.821521    -5.455633    -1.642100
H    -7.954745    -5.049250    -2.523430
H    -3.829646     5.240355     5.743327
O    -3.796030     6.012678     5.157579
H    -2.862252     6.305444     5.252376
H    -7.883416     0.104804    -1.945384
O    -7.392478     0.829650    -2.355112
H    -7.620399     0.823858    -3.308576
H     5.838067     0.136663     0.439377
O     5.616204     0.854673     1.064454
H     6.126714     0.655081     1.876158
H    -6.216526     3.290423     7.432909
O    -6.089260     2.769044     8.259624
H    -6.689386     2.007966     8.167691
H     2.278045    -8.061343    -0.851309
O     2.956075    -8.046316    -1.546515
H     2.731402    -8.757561    -2.162997
H    -2.741365    -3.926594    -6.189785
O    -1.988034    -4.494105    -5.959915
H    -1.711877    -4.205842    -5.061660
H    -5.644199     3.749503     5.346995
O    -6.292413     4.143166     5.966923
H    -6.133392     5.087934     5.952858
H    -1.016523    -7.092315    -3.167749
O    -0.544057    -6.424983    -2.636465
H     0.363245    -6.353541    -3.017335
H     4.443130     2.004277     5.164093
O     3.501778     2.245459     5.045414
H     3.117100     2.255598     5.927209
H     4.108894     4.643506     6.345170
O     4.185773     5.377300     5.730875
H     3.619621     5.136504     4.958573
H     2.764277     3.608818     3.966158
O     2.586238     4.549519     3.803505
H     2.469889     4.652667     2.837286
H     9.394543     0.223177    -1.042276
O     8.589192     0.384701    -0.547147
H     8.412631    -0.436551    -0.058313
H    -2.105118     5.287379     10.697055
O    -2.826833     4.657734     10.925482
H    -3.045748     4.830800     11.841320
H     7.973530    -3.002895     0.342730
O     8.394747    -2.157406     0.601736
H     8.328549    -2.156668     1.564014
H     5.371326     3.658032     3.567179
O     6.026043     3.923067     4.235521
H     5.611734     4.638684     4.738983
H    -4.212951     4.992511     9.828902
O    -4.844920     5.147041     9.106716
H    -5.457487     4.398969     9.100461
H    -7.008679    -3.454248    -3.477361
O    -7.628760    -4.064934    -3.928055
H    -7.107467    -4.503682    -4.632148
H     0.023998     6.096248     10.820212
O    -0.840406     6.428752     10.573794
H    -0.724673     6.863041     9.709546
H     2.591706     1.523786    -4.074040
O     3.470248     1.874791    -3.832397
H     3.789366     1.355645    -3.064341
H    -6.974326    -0.237271     7.241533
O    -7.482542     0.540416     7.524876
H    -8.106089     0.726267     6.821729
H    -2.742250    -9.860622    -0.846144
O    -2.678765    -8.918335    -1.002001
H    -3.584744    -8.552654    -0.760236
H    -10.065717     3.105018    -4.864814
O    -10.183471     2.186541    -4.587502
H    -10.398812     2.267430    -3.637381
H    -2.069041    -3.033334     4.626095
O    -2.943960    -3.473659     4.694047
H    -2.937858    -4.088187     3.935017
H    -0.178562    -7.983397     2.477984
O     0.647676    -7.774860     2.927058
H     1.366117    -8.068332     2.339226
H     6.703340    -2.393927     6.410759
O     7.153303    -3.101656     5.944612
H     6.523383    -3.836361     5.902563
H    -5.274063    -2.020837     6.958887
O    -5.950107    -1.520491     6.476950
H    -5.933719    -1.893662     5.566100
H     0.841040     3.073087    -7.075461
O     1.758147     2.740251    -7.132499
H     1.743220     1.996762    -7.762870
H    -3.946996     8.753481     6.721950
O    -3.931681     8.748136     5.764761
H    -4.072112     7.822628     5.498155
H    -2.385725     10.465821    -3.033079
O    -3.331282     10.589371    -2.725677
H    -3.649819     11.405345    -3.116101
H     9.409466    -4.070160     4.056255
O     9.129745    -4.750551     4.676360
H     8.699797    -4.280965     5.402028
H    -0.732229    -5.963725    -5.840029
O    -0.028826    -6.531675    -5.508756
H     0.806707    -6.069233    -5.724401
H     2.006042     8.199113     0.825457
O     1.681010     8.497464    -0.059153
H     2.484564     8.508377    -0.624381
H     3.501799     2.966500    -6.624318
O     4.329317     2.674819    -6.215571
H     4.083161     2.397580    -5.308052
H     3.810502     7.006544    -1.164406
O     4.036713     7.953298    -1.337012
H     4.416830     7.911481    -2.231803
H     4.398511     0.034345    -7.884857
O     4.776051     0.177428    -7.015083
H     4.593632     1.108316    -6.767839
H     6.031831     1.944466    -0.440608
O     6.597686     2.140263    -1.201217
H     7.421856     1.659240    -1.008914
H     6.684227    -8.416971    -1.613577
O     7.320411    -8.203508    -2.349130
H     7.685488    -9.036874    -2.641598
H    -5.298714    -5.756147    -5.407802
O    -5.915932    -5.083058    -5.720104
H    -5.364847    -4.313685    -5.953379
H     0.678727     7.152778     7.653677
O    -0.223580     7.183956     8.011064
H    -0.777558     7.202666     7.193297
H    -8.895222    -2.807034    -4.091469
O    -9.415993    -1.999508    -3.920392
H    -9.129962    -1.331563    -4.547320
H    -2.408578    -5.969945    -2.143536
O    -3.286834    -5.682799    -2.410837
H    -3.473781    -6.053269    -3.298428
H    -2.984465    -5.867489    -5.409166
O    -3.584219    -6.479449    -4.939482
H    -3.102253    -7.300389    -4.776460
H    -1.382062     3.770395    -6.938530
O    -0.844822     3.009719    -6.673770
H    -1.085326     2.229632    -7.228346
H    -0.200623     0.461243    -8.189259
O    -1.096935     0.694694    -7.905558
H    -1.271952     0.168806    -7.109216
H    -10.421288     4.073872    -2.696874
O    -10.488537     3.293331    -2.131176
H    -9.658794     3.265510    -1.622922
H     4.593110     4.073453     1.757339
O     4.376294     3.156573     2.043780
H     5.085368     2.573300     1.760245
H     6.487623     1.424665    -4.187036
O     6.184937     0.797751    -3.495394
H     6.215368     1.289978    -2.649758
H     9.633882    -2.214176    -0.910874
O     9.910958    -1.995394    -1.809457
H     9.110568    -1.655373    -2.251914
H     9.970900    -3.299870    -3.084292
O     9.703898    -3.949217    -3.761799
H     9.310378    -3.438746    -4.480157
H    -7.697727    -8.557493    -1.677920
O    -6.959631    -7.962870    -1.803429
H    -7.337104    -7.049740    -1.790347
H     4.161841     6.109328    -3.771357
O     4.825268     6.807177    -3.677443
H     5.660862     6.349447    -3.549287
H     0.099409    -8.139226    -5.223955
O     0.123304    -9.122736    -5.096275
H     0.273625    -9.482729    -5.970428
H    -2.331552    -8.652609    -2.726584
O    -2.097382    -8.385130    -3.634955
H    -1.450819    -9.002217    -3.996145
H     2.184419    -10.792636    -3.514915
O     2.138404    -9.838212    -3.486331
H     1.353323    -9.565006    -4.011856
H     6.837538     3.359415    -4.534329
O     6.895959     2.683661    -5.237375
H     6.102572     2.818461    -5.777951
H    -3.566963    -3.743205     7.729797
O    -3.679834    -2.952821     7.203291
H    -3.428865    -3.188244     6.283898
H    -0.635095    -3.324699    -6.713368
O    -0.004065    -2.593968    -6.717192
H    -0.485499    -1.819272    -6.373193
H     0.638790     0.435518     8.780951
O     0.646639    -0.275306     8.136051
H    -0.275361    -0.564650     8.047153
H    -5.829733     7.391628    -4.208407
O    -6.339470     6.775232    -4.767504
H    -6.623010     6.045493    -4.174407
H    -4.338440     9.138708    -3.162661
O    -4.816952     8.299046    -3.114304
H    -4.413996     7.835817    -2.363804
H    -9.708986     5.825583    -4.599471
O    -10.243416     5.020482    -4.439922
H    -11.123102     5.223540    -4.759805
H     2.764959     6.499739     6.191483
O     1.804886     6.597140     6.291239
H     1.461396     5.683790     6.185089
H     4.814942     8.549374     0.178689
O     5.131588     8.539644     1.099646
H     5.553376     7.679233     1.207246
H     4.144455    -7.398728    -4.346661
O     3.386747    -7.681316    -4.890601
H     3.106072    -8.523694    -4.517968
H     0.347155     8.652674     4.301059
O     1.050010     8.029681     4.087588
H     1.260517     7.526352     4.900874
H     5.236625     4.213879    -3.114754
O     6.198099     4.185265    -3.060506
H     6.406768     3.599684    -2.315853
H    -2.579045    -1.564470     7.591180
O    -2.069438    -0.771666     7.814632
H    -2.696002    -0.147566     8.191124
H    -9.024894     7.964586    -4.093486
O    -8.963136     7.380802    -4.850989
H    -8.005556     7.217312    -4.987506
H     3.530442    -8.974607     1.079180
O     2.853815    -8.344246     1.331714
H     3.328330    -7.539981     1.614722
H     3.736545     8.174877     2.056790
O     2.936226     7.613306     2.157039
H     2.492815     7.847037     2.986762
N    -0.015747     10.444746    -0.476045
H     0.670144     9.760876    -0.238837
H     0.210522     11.222967     0.039641
