39

H    -3.026294    -1.813638    -3.168720
O    -2.584855    -0.931649    -3.132782
H    -3.263116    -0.280661    -3.403764
H    -1.575351    -0.788877    -4.651234
O    -1.019627    -0.529923    -5.415130
H    -0.291735    -0.012630    -5.039333
H    -3.347969     1.618089    -4.122831
O    -4.212595     1.172756    -3.914680
H    -4.399520     1.328313    -2.951572
H    -1.140070     1.615644    -3.893943
O    -1.821271     2.217454    -4.255061
H    -1.499387     2.564400    -5.113799
H    -5.158215     5.831955    -5.517754
O    -4.547044     5.068003    -5.600233
H    -3.782106     5.355876    -6.126968
H    -5.529813     3.554937    -5.571903
O    -6.041447     2.842607    -5.139026
H    -5.361379     2.323521    -4.657447
H    -5.226731    -0.072846    -4.683089
O    -5.825268    -0.790680    -4.967073
H    -6.688008    -0.354943    -5.097651
H    -7.430623     1.707516    -5.219809
O    -7.991292     0.937459    -4.996637
H    -8.902109     1.317206    -4.889403
H    -1.661356     6.331735    -6.938147
O    -2.040904     5.487552    -6.677743
H    -1.793879     5.380030    -5.707733
H    -4.106162    -3.080574    -4.909745
O    -4.230674    -2.969979    -5.881980
H    -4.765426    -2.164695    -5.939343
H    -1.257451     3.830284    -6.997225
O    -0.798364     3.037433    -6.673992
H    -1.018479     2.265426    -7.249453
H    -0.145199     0.460294    -8.237738
O    -1.038517     0.661830    -7.906904
H    -1.108089     0.167517    -7.063551
N    -3.741378     1.515723    -7.075224
H    -3.155335     1.110349    -7.725879
H    -4.630551     1.332593    -7.390899
