33

H     1.794364     3.495397     6.782761
O     1.196630     4.023609     6.227435
H     0.377027     4.167912     6.751643
H    -1.731546     4.498100     7.531045
O    -0.809634     4.586285     7.879204
H    -0.647549     5.547879     8.009215
H    -0.630995     1.976843     7.655323
O    -1.268646     1.933468     6.927796
H    -2.131071     1.759249     7.327499
H    -2.485325     2.920918     10.591042
O    -2.258260     2.014079     10.292986
H    -2.859189     1.853315     9.550586
H    -0.154287     3.381670     8.875866
O     0.195409     2.545201     9.277019
H    -0.597846     2.232395     9.781045
H     2.001605     2.014087     8.277700
O     2.791743     2.273177     7.786845
H     3.244717     1.422519     7.596565
H    -2.015768     5.275433     10.745735
O    -2.797693     4.676415     10.910408
H    -3.106902     4.914944     11.789151
H     0.162502     5.768443     10.699852
O    -0.668028     6.282385     10.664332
H    -0.604406     6.780705     9.833729
H     0.673670     7.211128     7.591732
O    -0.243131     7.232091     7.927980
H    -0.760145     7.250408     7.083453
H     2.858830     6.660256     6.065624
O     1.894416     6.704060     6.182412
H     1.623600     5.763945     6.066054
N     1.642588     4.598270     10.661698
H     1.338092     3.747109     10.298389
H     2.454259     4.798407     10.185589
