603

H     0.212658     3.041072    -0.664655
O     0.733710     2.371539    -1.158293
H     1.673170     2.499332    -0.886513
H    -0.063157    -1.296552     3.165987
O     0.329184    -0.596955     2.621156
H    -0.147038     0.217376     2.854545
H    -2.387141     2.424468    -0.516665
O    -2.176236     1.953080     0.306820
H    -2.193869     1.005413     0.081241
H    -4.649115     0.564420     2.204507
O    -4.967042    -0.368734     2.219447
H    -4.465290    -0.847042     1.551172
H     0.074622    -0.298303     0.966180
O    -0.124722    -0.061508     0.039793
H     0.215715     0.834637    -0.081721
H    -0.143840    -3.566616     3.792993
O    -0.420788    -2.736389     4.214593
H     0.227470    -2.567026     4.914688
H    -4.871379     2.548402     1.353756
O    -4.231606     2.137598     1.967584
H    -3.389899     2.118705     1.452943
H    -3.238378     3.912969    -2.191284
O    -2.501522     3.314484    -1.961684
H    -2.144839     3.026585    -2.822045
H    -0.120875    -3.794509     0.518551
O     0.221024    -2.977585     0.935927
H    -0.565007    -2.489775     1.248779
H    -2.367230    -1.524543     2.488460
O    -2.180177    -1.991016     1.647625
H    -2.438784    -1.403849     0.918143
H     2.077421    -1.436360    -1.110191
O     2.310441    -1.689597    -0.193162
H     1.521304    -2.116023     0.192056
H    -1.376306     1.835886     1.928370
O    -1.466998     1.438447     2.804666
H    -1.449338     2.151261     3.469162
H     0.210438    -2.693565    -1.555604
O    -0.544581    -2.081046    -1.608561
H    -0.362785    -1.354580    -0.975435
H    -3.433285    -2.910164    -0.370272
O    -2.717249    -3.403545    -0.791583
H    -2.006729    -2.773931    -1.011809
H     2.786729     0.134507     2.943117
O     2.887240    -0.048036     3.904750
H     2.980919     0.844908     4.308834
H    -3.512933     6.395661    -0.522058
O    -3.274582     7.057238    -1.223192
H    -3.130829     7.902614    -0.753773
H     3.913391     0.588229     1.193262
O     2.962936     0.407351     1.311491
H     2.723503    -0.344229     0.731958
H    -5.774609     0.861574    -1.579802
O    -4.863443     1.187255    -1.454613
H    -4.972309     2.016129    -0.943245
H    -1.191692     5.410217     2.225440
O    -1.816900     4.662669     2.110654
H    -1.893475     4.245547     2.973917
H     3.506705     2.767928     0.433361
O     3.256924     2.725334    -0.505294
H     3.587758     1.882393    -0.856511
H     1.488779    -4.689242    -2.238871
O     1.555520    -3.912147    -1.665770
H     2.350120    -3.452088    -2.018376
H    -0.918308    -0.073441    -2.532044
O    -0.283482     0.577743    -2.857371
H    -0.020924     1.160053    -2.121134
H     1.700619    -4.678140    -0.167820
O     1.807797    -5.315292     0.574735
H     1.342770    -6.125808     0.279473
H    -1.228236    -3.253821    -2.863195
O    -1.057028    -3.937631    -3.524103
H    -0.931006    -4.784666    -3.055240
H    -2.758275     3.317090     4.722436
O    -1.777558     3.315754     4.685822
H    -1.483195     2.916469     5.522215
H     0.980610     5.046838     4.087901
O     0.034929     5.278601     4.147528
H    -0.433686     4.472766     4.401415
H    -1.729446    -4.638100    -0.353747
O    -0.964627    -5.180003    -0.070054
H    -1.312212    -5.866436     0.508678
H    -3.906176     5.848057    -2.576171
O    -4.258335     5.014387    -2.905715
H    -4.105135     4.979784    -3.874146
H    -2.424076    -3.675690     1.955048
O    -2.443196    -4.579572     2.331592
H    -1.503470    -4.819301     2.469790
H    -4.697033    -2.962802    -2.875494
O    -3.845786    -3.196990    -3.283336
H    -3.515064    -3.991009    -2.818621
H     0.358462     1.386246     4.628537
O     0.864564     2.145596     4.293726
H     0.916594     2.804841     5.000055
H    -4.657379    -5.153157    -1.547695
O    -5.357561    -4.798708    -0.972547
H    -5.143225    -5.153444    -0.088856
H     2.317682    -6.475333    -4.029489
O     1.982720    -6.146147    -3.175312
H     2.417642    -6.720531    -2.512895
H     0.462550    -3.369816    -3.992097
O     1.265026    -3.004135    -4.416747
H     0.944489    -2.632020    -5.264614
H     1.975539    -1.745782     2.992139
O     2.128701    -2.677091     2.775123
H     1.441476    -2.889677     2.109173
H    -3.015554    -1.794487    -3.189740
O    -2.591961    -0.908678    -3.125353
H    -3.247037    -0.261994    -3.443893
H    -3.173195     4.990745     1.099982
O    -3.955739     5.364908     0.647736
H    -4.367153     5.925420     1.354629
H     0.892637     2.262474     2.603403
O     0.991140     2.256987     1.632026
H     1.717352     1.633325     1.466474
H     0.205398     5.667006    -0.744156
O     0.727058     6.327852    -1.254194
H     0.871379     7.127754    -0.698943
H     0.366282     7.046463     2.605051
O     0.002235     6.664611     1.788835
H     0.665857     5.994420     1.525927
H    -2.465202     0.229456     3.359985
O    -2.688474    -0.583350     3.866598
H    -1.925697    -0.625367     4.485379
H    -0.872083     0.564447     6.041494
O    -0.602009     0.044191     5.266505
H     0.112347    -0.559648     5.550716
H     0.714333    -4.985267     1.993229
O     0.173525    -5.094034     2.798822
H     0.317421    -6.014898     3.070543
H    -2.121642    -8.075029     0.466673
O    -1.797139    -7.587532     1.251315
H    -2.582187    -7.275112     1.708700
H    -0.365979     6.874540    -2.310469
O    -1.112920     7.295011    -2.808427
H    -1.901855     7.170443    -2.242923
H    -1.097795     4.321830     0.590186
O    -0.726538     4.381461    -0.306726
H    -1.435033     4.141281    -0.937600
H    -4.391294     2.764010     3.529207
O    -4.390280     2.932616     4.494215
H    -4.472287     2.049262     4.902245
H     2.035117    -3.575561     4.254538
O     1.972166    -4.047391     5.108086
H     2.482162    -3.511829     5.737312
H     4.692910    -3.191783     0.844141
O     4.530566    -3.115982    -0.121995
H     3.672226    -2.637357    -0.203745
H    -2.718466    -0.734130    -1.332224
O    -3.043982    -0.464038    -0.457095
H    -3.843804     0.063421    -0.662607
H    -1.618850    -0.748178    -4.613963
O    -1.112986    -0.533309    -5.418826
H    -0.401939     0.062453    -5.135084
H     1.793810    -1.707511    -3.366402
O     1.888378    -0.960990    -2.743295
H     1.111626    -0.382639    -2.872830
H     3.671495    -3.117933     2.557665
O     4.630076    -3.348224     2.482799
H     4.683713    -4.308473     2.609249
H     3.431280    -6.116777     3.130666
O     3.785410    -5.916462     2.229783
H     3.047343    -5.569753     1.688307
H    -3.341666     1.626157    -4.157008
O    -4.186765     1.156518    -3.964505
H    -4.402247     1.302867    -3.007527
H    -5.068143     4.165361     0.091612
O    -5.508287     3.299834    -0.010994
H    -6.438906     3.420715    -0.291294
H     6.737563    -1.182527    -1.361990
O     5.966761    -1.031862    -0.808435
H     5.546842    -1.898987    -0.610288
H     4.592112    -3.166182    -2.465350
O     3.723604    -2.993681    -2.879483
H     3.724570    -3.612350    -3.635730
H     4.450681    -2.290564     5.627008
O     4.108523    -2.755556     6.420895
H     4.442234    -3.661016     6.338576
H    -0.795450     6.297098     4.950743
O    -1.406611     6.893870     5.457814
H    -1.330165     7.756985     4.987873
H     4.703358    -0.133859    -1.461483
O     3.936173     0.409600    -1.722628
H     3.242219    -0.189894    -2.051515
H    -0.735878     4.534881    -4.021699
O    -1.518336     5.078763    -4.228291
H    -1.365097     5.945289    -3.805904
H     0.666960     3.212819    -2.645179
O     0.673075     3.589347    -3.553751
H     0.717965     2.825802    -4.139298
H    -5.380124    -5.175185     1.819295
O    -4.685045    -5.771077     1.462941
H    -3.843333    -5.356335     1.731667
H     7.878408    -1.692831    -4.035444
O     7.622881    -1.379202    -3.135269
H     7.137031    -0.534543    -3.290831
H     3.690423    -5.068322    -5.283361
O     4.454510    -4.696138    -4.803919
H     4.838989    -5.407776    -4.258949
H    -3.765464     0.034728     4.957345
O    -4.364052     0.498596     5.593056
H    -5.025609    -0.159000     5.883620
H     3.462074    -5.938027    -0.512429
O     4.334599    -5.692205    -0.831808
H     4.412574    -4.729951    -0.688474
H     4.999265    -0.333880    -4.156448
O     4.462166    -1.044553    -4.545165
H     4.136619    -1.627288    -3.826597
H    -1.170262     1.583681    -3.920308
O    -1.820718     2.205076    -4.304624
H    -1.464394     2.536359    -5.151607
H     4.878345    -6.320000    -2.310688
O     5.208789    -6.645597    -3.177011
H     6.026535    -7.127621    -2.992064
H     8.734259    -5.095875    -2.921812
O     8.043513    -5.512531    -2.361973
H     8.076431    -6.469907    -2.464134
H     2.354211     4.726193     0.460659
O     1.777009     4.708628     1.233342
H     1.417790     3.789234     1.311267
H    -4.403669    -2.617221     4.254602
O    -5.297481    -2.275489     4.055101
H    -5.160480    -1.495522     3.477920
H    -5.840972    -3.176497     1.343643
O    -6.303075    -3.732670     2.013303
H    -6.112458    -3.297264     2.863276
H     1.717072     3.474591     6.872874
O     1.091024     3.989150     6.341814
H     0.311205     4.141046     6.916675
H     5.012506    -2.166961     3.620237
O     5.035243    -1.448787     4.284406
H     4.224072    -0.891144     4.129019
H     2.399080    -5.570354     4.848076
O     2.777319    -6.454760     4.587538
H     2.031147    -7.035209     4.414735
H     2.243630    -4.510393    -6.780558
O     2.075476    -4.998344    -5.964466
H     1.813181    -4.306618    -5.308621
H     6.439922    -4.103547    -0.502235
O     7.193432    -4.507667    -0.040377
H     7.698718    -4.931179    -0.762129
H    -1.681540     4.389771     7.609325
O    -0.822145     4.547127     8.065721
H    -0.601273     5.492632     7.974224
H    -5.114061     5.711057    -5.572237
O    -4.507685     4.946584    -5.593927
H    -3.751264     5.159965    -6.161398
H     3.267499    -2.523507    -8.429402
O     3.180716    -3.055857    -7.627781
H     4.058274    -3.032818    -7.200789
H    -0.643345     8.838008    -2.264220
O    -0.518002     9.666478    -1.746138
H     0.244625     9.491077    -1.170158
H     2.083214    -0.905491     5.220803
O     1.510603    -1.429833     5.809937
H     1.608563    -1.085296     6.706905
H     5.198193    -2.023033    -5.689559
O     5.542150    -2.789907    -6.212170
H     5.268187    -3.579370    -5.693960
H     5.704230    -5.213492     4.688968
O     5.183766    -5.127656     5.516727
H     4.461339    -5.758807     5.432718
H    -3.954192     1.156843     7.029262
O    -3.760595     1.633159     7.873723
H    -4.633793     2.025889     8.134080
H    -1.831246     9.628206    -0.729766
O    -2.691141     9.501769    -0.254595
H    -3.301985     10.132682    -0.638896
H    -5.940141     4.708664    -2.912976
O    -6.849780     4.590484    -3.254966
H    -6.761765     3.888036    -3.932246
H     0.088572    -7.054904    -1.128555
O     0.553695    -7.491335    -0.381696
H    -0.124471    -7.685179     0.268508
H    -7.628710     3.813021    -1.944014
O    -7.889343     3.226365    -1.203392
H    -7.748369     2.317542    -1.543351
H     3.994206    -0.887850     6.992201
O     4.004035     0.076308     6.983682
H     4.815453     0.365361     6.549751
H     2.271771     5.802876    -1.170614
O     3.207095     5.508500    -1.058319
H     3.381226     4.968289    -1.851943
H     6.550132    -5.929987     0.673202
O     6.181604    -6.665710     1.207831
H     5.277901    -6.387329     1.436356
H    -3.822494     4.611256     7.586804
O    -3.237998     4.097262     6.993622
H    -3.451812     3.175677     7.237200
H     5.757863    -7.944829     0.141106
O     5.467656    -8.631709    -0.495599
H     4.638139    -8.305044    -0.888161
H    -0.526288     2.049719     7.709541
O    -1.162872     1.987079     6.977328
H    -2.027951     1.837068     7.376656
H    -6.374315    -0.100957     1.090197
O    -6.696007    -0.184706     0.177943
H    -7.615266    -0.453648     0.197273
H    -5.370851    -3.045501    -0.562249
O    -5.116610    -2.343731     0.063225
H    -5.685600    -1.569914    -0.123756
H     4.333568     5.581518     0.324990
O     4.669240     5.681387     1.229616
H     3.976663     6.193482     1.682992
H    -9.044474    -1.720915    -2.219642
O    -8.494702    -1.520231    -1.434700
H    -8.621776    -2.256657    -0.796782
H    -5.523975     3.489003    -5.502419
O    -6.041356     2.778913    -5.086694
H    -5.374719     2.192741    -4.674160
H     3.174156    -0.884202    -5.647527
O     2.317060    -1.003140    -6.111455
H     2.400391    -1.852336    -6.584924
H     8.106600    -1.353182    -6.031715
O     8.114513    -2.217103    -5.575095
H     7.257208    -2.615853    -5.823800
H     7.615755     0.987952    -6.311913
O     7.424738     0.139808    -6.724537
H     6.443245     0.091287    -6.758742
H    -7.857440    -3.670161     0.961585
O    -8.537287    -3.562316     0.278827
H    -8.441458    -4.321835    -0.323157
H    -2.385903     8.751454     1.308325
O    -2.232839     8.163103     2.060879
H    -1.464476     7.608623     1.836477
H    -4.425997     6.449710     3.515516
O    -4.591595     6.886724     2.658737
H    -3.822453     7.465390     2.519238
H     3.405396     3.450772    -3.570832
O     3.253783     4.420237    -3.477269
H     2.288782     4.486445    -3.582814
H    -6.118703    -1.586389    -3.414575
O    -6.200826    -2.165323    -2.630230
H    -6.983282    -1.856746    -2.120104
H     6.486153     1.051032     4.739981
O     6.094358     1.590276     5.443814
H     6.282705     2.508781     5.152195
H     1.358605     1.729231    -5.811513
O     1.164762     1.133790    -5.056726
H     1.526440     0.270157    -5.327112
H    -2.460267     2.983435     10.498233
O    -2.249254     2.075466     10.229304
H    -2.847370     1.870782     9.498522
H     7.640088    -0.498672     3.081633
O     6.891161     0.077912     3.252162
H     6.198934    -0.521467     3.633013
H    -5.666473    -8.035195    -0.672902
O    -4.930314    -8.104860    -0.028060
H    -4.931742    -7.287430     0.493669
H    -5.181105    -0.101258    -4.689822
O    -5.799761    -0.812221    -4.927982
H    -6.637639    -0.369306    -5.124501
H     1.880275    -0.192619    -7.504683
O     1.677617     0.279276    -8.348293
H     2.252285    -0.127031    -9.002495
H     4.856932    -1.392498    -9.299783
O     3.931508    -1.162353    -9.580081
H     3.909184    -1.280241    -10.529070
H     7.575471    -2.571619     4.198749
O     7.720221    -2.608112     3.238983
H     7.225160    -3.398293     2.968294
H     6.724067    -5.894751     2.686010
O     6.788210    -5.219606     3.387005
H     7.664971    -5.305785     3.802800
H    -1.699857     9.001067     3.388549
O    -1.346319     9.345733     4.238156
H    -2.143048     9.476072     4.793898
H    -7.392390     1.588518    -5.220878
O    -7.967755     0.845310    -4.974226
H    -8.868749     1.246345    -4.896546
H     6.913167    -1.085189    -8.404472
O     6.329661    -1.805505    -8.666710
H     6.102891    -2.254817    -7.834159
H    -1.675622     6.252966    -7.005894
O    -2.073712     5.428113    -6.731371
H    -1.823643     5.297423    -5.768107
H     0.036266     3.321642     9.039138
O     0.228916     2.401057     9.292998
H    -0.567940     2.139486     9.801640
H     6.752731    -2.780518    -2.704365
O     6.221983    -3.523959    -2.361991
H     6.688822    -4.335476    -2.609351
H    -4.086355    -3.057134    -4.919629
O    -4.242376    -2.944592    -5.884134
H    -4.788664    -2.150802    -5.939421
H     2.009905     2.191037     8.476164
O     2.671209     2.303455     7.783898
H     3.093011     1.433216     7.666689
H    -6.912373    -5.180362    -1.364876
O    -7.828899    -5.448557    -1.608268
H    -7.963787    -5.046119    -2.491111
H    -3.886551     5.100420     5.296393
O    -3.969604     6.043867     5.103620
H    -3.044971     6.367619     5.215036
H    -7.882693     0.110439    -1.935121
O    -7.392412     0.833008    -2.349792
H    -7.622858     0.822361    -3.302558
H     5.845147     0.131641     0.414058
O     5.625457     0.853573     1.035232
H     6.137303     0.658151     1.847055
H    -6.183369     3.349255     7.417277
O    -6.052690     2.837582     8.250336
H    -6.652673     2.075393     8.167938
H     2.270259    -8.067107    -0.830794
O     2.945834    -8.055666    -1.528426
H     2.718589    -8.769547    -2.140907
H    -2.757633    -3.948202    -6.175622
O    -2.004413    -4.515593    -5.945272
H    -1.725675    -4.224102    -5.048849
H    -5.695574     3.684297     5.328617
O    -6.396079     4.070109     5.896472
H    -6.164633     5.003887     5.943726
H    -1.029839    -7.102965    -3.144402
O    -0.555229    -6.433828    -2.617327
H     0.351508    -6.365881    -3.000293
H     4.465531     2.021953     5.133158
O     3.523809     2.262088     5.015407
H     3.141884     2.279600     5.898178
H     4.135963     4.664059     6.305482
O     4.214631     5.394923     5.688030
H     3.645361     5.154740     4.918274
H     2.785404     3.625289     3.930384
O     2.607296     4.565361     3.765471
H     2.486769     4.664512     2.799279
H     9.398099     0.206759    -1.076464
O     8.593444     0.371045    -0.581155
H     8.417322    -0.447446    -0.087588
H    -2.063923     5.328727     10.584056
O    -2.772202     4.692733     10.821606
H    -2.908092     4.790573     11.766835
H     7.975586    -3.011274     0.326013
O     8.398635    -2.165225     0.580003
H     8.334842    -2.159862     1.542443
H     5.390310     3.668805     3.527542
O     6.047602     3.932967     4.193309
H     5.637274     4.652759     4.694462
H    -4.226020     4.969917     9.734278
O    -4.837783     5.171261     8.998618
H    -5.452357     4.419642     8.956705
H    -7.017372    -3.457099    -3.454465
O    -7.639750    -4.068321    -3.901125
H    -7.120950    -4.511333    -4.604405
H    -0.723488     7.451772     10.848097
O    -1.151310     6.873756     10.212281
H    -0.666627     7.016788     9.360101
H     2.589240     1.501289    -4.096420
O     3.468816     1.852517    -3.859940
H     3.789816     1.337572    -3.089694
H    -6.948902    -0.188862     7.252959
O    -7.450541     0.594940     7.531353
H    -8.080984     0.772207     6.832091
H    -2.753707    -9.858456    -0.806028
O    -2.689396    -8.916946    -0.966205
H    -3.594232    -8.548988    -0.723838
H    -10.067999     3.101471    -4.862625
O    -10.185914     2.184319    -4.581185
H    -10.399365     2.269272    -3.630991
H    -2.056097    -3.008837     4.634361
O    -2.931907    -3.446940     4.706346
H    -2.928514    -4.065110     3.950226
H    -0.179080    -7.970684     2.503131
O     0.648541    -7.761368     2.949273
H     1.365155    -8.058587     2.361068
H     6.722564    -2.373482     6.393609
O     7.169840    -3.084286     5.929570
H     6.538573    -3.818075     5.892687
H    -5.254594    -1.981390     6.970542
O    -5.930648    -1.481150     6.488444
H    -5.917498    -1.858541     5.579171
H     0.832127     3.040308    -7.102328
O     1.749078     2.707927    -7.160421
H     1.732596     1.960275    -7.786006
H    -3.448035     8.700562     6.656962
O    -3.627413     9.169250     5.820306
H    -4.178408     8.545374     5.333499
H    -2.042927     10.327836    -2.721246
O    -2.944707     10.509939    -3.022360
H    -2.873283     11.144599    -3.734632
H     9.419534    -4.064302     4.039913
O     9.140053    -4.741646     4.663461
H     8.713021    -4.268213     5.388354
H    -0.750540    -5.986913    -5.822140
O    -0.047260    -6.554411    -5.489900
H     0.788510    -6.094395    -5.709757
H     1.846216     8.283984     0.673361
O     1.541694     8.605228    -0.204034
H     2.355386     8.642469    -0.735983
H     3.495008     2.933213    -6.655958
O     4.323076     2.641689    -6.248543
H     4.079488     2.368903    -5.338940
H     3.748326     7.129770    -1.225271
O     3.955395     8.064973    -1.439615
H     4.322266     8.008000    -2.333811
H     4.384207    -0.005771    -7.906531
O     4.763558     0.140134    -7.038038
H     4.583865     1.072456    -6.794351
H     6.038998     1.934473    -0.474396
O     6.602936     2.126294    -1.237520
H     7.427200     1.645482    -1.045177
H     6.673870    -8.431744    -1.603957
O     7.308504    -8.222309    -2.341991
H     7.673474    -9.057178    -2.630268
H    -5.316051    -5.770365    -5.378937
O    -5.932918    -5.097490    -5.692423
H    -5.381093    -4.330272    -5.930847
H     0.728034     7.097784     7.387232
O    -0.166608     7.170388     7.776111
H    -0.744027     7.181137     6.962602
H    -8.904716    -2.809422    -4.066548
O    -9.423427    -2.000025    -3.897971
H    -9.137955    -1.335806    -4.529074
H    -2.417767    -5.973861    -2.121347
O    -3.296179    -5.686377    -2.387840
H    -3.485981    -6.060880    -3.273133
H    -3.001594    -5.885522    -5.385910
O    -3.601298    -6.494157    -4.911942
H    -3.120346    -7.315199    -4.746294
H    -1.393325     3.738293    -6.965935
O    -0.853775     2.981568    -6.696219
H    -1.093474     2.196751    -7.245313
H    -0.215172     0.426432    -8.200780
O    -1.110225     0.663114    -7.915470
H    -1.284397     0.140180    -7.116897
H    -10.416353     4.080432    -2.697665
O    -10.483536     3.301955    -2.129232
H    -9.653054     3.274689    -1.622222
H     4.596304     4.085311     1.724289
O     4.388099     3.164552     2.004005
H     5.102229     2.587760     1.720228
H     6.484990     1.397651    -4.219443
O     6.182607     0.774195    -3.524546
H     6.216057     1.270031    -2.681051
H     9.633830    -2.230643    -0.935198
O     9.908766    -2.016958    -1.835666
H     9.107916    -1.677173    -2.277413
H     9.963670    -3.326764    -3.104731
O     9.694085    -3.978642    -3.778817
H     9.299571    -3.470691    -4.498397
H    -7.709619    -8.551258    -1.631292
O    -6.971119    -7.958059    -1.761098
H    -7.347365    -7.044459    -1.750865
H     4.168133     6.084583    -3.817109
O     4.830587     6.784763    -3.734100
H     5.666372     6.329621    -3.598084
H     0.079650    -8.161034    -5.198068
O     0.102188    -9.143924    -5.065802
H     0.250184    -9.508333    -5.938523
H    -2.346144    -8.659390    -2.692836
O    -2.114047    -8.396226    -3.602995
H    -1.469210    -9.015779    -3.963096
H     2.165005    -10.809928    -3.481863
O     2.120415    -9.855314    -3.457661
H     1.334361    -9.583426    -3.982349
H     6.837199     3.329586    -4.575928
O     6.892769     2.650952    -5.276592
H     6.098331     2.785148    -5.815621
H    -3.547603    -3.702676     7.744648
O    -3.660625    -2.914346     7.215084
H    -3.412400    -3.154288     6.296024
H    -0.651815    -3.351998    -6.707054
O    -0.020296    -2.621700    -6.716115
H    -0.499951    -1.845222    -6.373807
H     0.668887     0.473066     8.767120
O     0.672972    -0.240650     8.125464
H    -0.249572    -0.528942     8.040304
H    -5.825518     7.387929    -4.226573
O    -6.330756     6.769488    -4.786051
H    -6.617638     6.039554    -4.193680
H    -4.265516     9.120936    -3.242507
O    -4.801679     8.325233    -3.135143
H    -4.392838     7.845985    -2.396320
H    -9.706622     5.822727    -4.611461
O    -10.240836     5.018848    -4.446624
H    -11.121897     5.221213    -4.763217
H     2.787831     6.528567     6.150281
O     1.828425     6.622653     6.257032
H     1.488304     5.709531     6.145521
H     4.823321     8.551609     0.085712
O     5.143347     8.552243     1.005693
H     5.548761     7.687195     1.136049
H     4.127915    -7.422630    -4.334596
O     3.368108    -7.706491    -4.874970
H     3.087513    -8.546901    -4.497853
H     0.402744     8.671458     4.242108
O     1.083378     8.027044     4.016195
H     1.305598     7.534180     4.830883
H     5.241135     4.193871    -3.155820
O     6.202663     4.162089    -3.105394
H     6.412310     3.580849    -2.357623
H    -2.555635    -1.527913     7.593930
O    -2.045988    -0.733885     7.813220
H    -2.672292    -0.109438     8.189051
H    -9.018561     7.961944    -4.114479
O    -8.957928     7.376592    -4.870884
H    -8.001360     7.211399    -5.008261
H     3.524870    -8.973867     1.100359
O     2.849773    -8.341035     1.350783
H     3.326276    -7.536266     1.629122
H     3.606407     8.179245     1.834853
O     2.816174     7.615986     1.948825
H     2.370521     7.853754     2.775055
N    -3.335252     7.631963     8.222311
H    -2.752115     7.598328     8.992546
H    -4.019472     6.969631     8.390290
