24

H     2.292374    -6.543007    -3.965844
O     1.953230    -6.208311    -3.125120
H     2.353409    -6.815541    -2.462407
H     3.669207    -5.038003    -5.272411
O     4.439993    -4.695530    -4.781799
H     4.817367    -5.401516    -4.225968
H     2.199132    -4.398282    -6.774453
O     2.051211    -4.919130    -5.968712
H     1.800020    -4.221380    -5.300740
H    -0.910438    -5.860733    -5.913409
O    -0.202018    -6.443288    -5.606606
H     0.618358    -5.933061    -5.757655
H    -0.055827    -8.093621    -5.159714
O     0.113153    -9.062618    -5.056869
H     0.586623    -9.240235    -5.889144
H     2.213908    -10.731404    -3.586208
O     2.076471    -9.791134    -3.466963
H     1.271582    -9.518394    -3.996695
H     4.210418    -7.515478    -4.372902
O     3.445401    -7.851846    -4.877358
H     3.155253    -8.637556    -4.368463
N     1.949974    -8.694498    -7.152614
H     2.622457    -8.310623    -6.560331
H     1.558392    -7.928876    -7.585851
