27

H    -6.082998    -1.547893    -3.393538
O    -6.229315    -2.207868    -2.687905
H    -6.989804    -1.895147    -2.149116
H    -5.102163    -0.040009    -4.800110
O    -5.533359    -0.881256    -5.035436
H    -6.379747    -0.665565    -5.450824
H    -7.391056     1.611346    -5.175498
O    -7.961213     0.865408    -4.916607
H    -8.866477     1.262434    -4.886003
H    -4.041231    -3.176033    -4.878470
O    -4.161778    -3.115730    -5.855978
H    -4.541535    -2.227651    -5.959253
H    -7.930334     0.058445    -1.895345
O    -7.397252     0.755624    -2.298773
H    -7.608953     0.783728    -3.262568
H    -6.956149    -3.529022    -3.524301
O    -7.520095    -4.209998    -3.968852
H    -6.894652    -4.742890    -4.518178
H    -5.157283    -5.926627    -5.455854
O    -5.831115    -5.301612    -5.771593
H    -5.305506    -4.495996    -5.971604
H    -9.062236    -3.030690    -3.960137
O    -9.609999    -2.253175    -3.751192
H    -9.335063    -1.603368    -4.407992
N    -7.766694    -2.266422    -6.230805
H    -7.646351    -3.089377    -5.728125
H    -7.951575    -2.540829    -7.132059
