603

H     0.181709     3.016747    -0.666649
O     0.705770     2.350840    -1.161750
H     1.645165     2.484718    -0.892118
H    -0.055513    -1.320177     3.167242
O     0.329715    -0.618333     2.620091
H    -0.150622     0.192912     2.855544
H    -2.413644     2.382397    -0.513052
O    -2.198148     1.913624     0.310606
H    -2.208155     0.965563     0.086483
H    -4.656600     0.508596     2.216149
O    -4.970746    -0.425871     2.228784
H    -4.462889    -0.902105     1.563672
H     0.069443    -0.322650     0.966285
O    -0.134250    -0.087192     0.040352
H     0.201296     0.810610    -0.082358
H    -0.119216    -3.590375     3.796001
O    -0.400967    -2.761446     4.216937
H     0.247185    -2.586932     4.915947
H    -4.894146     2.490585     1.364076
O    -4.250259     2.084158     1.975829
H    -3.409240     2.071019     1.459904
H    -3.279350     3.864475    -2.186307
O    -2.538495     3.270703    -1.958158
H    -2.180924     2.985186    -2.818999
H    -0.102904    -3.820310     0.521348
O     0.234185    -3.000426     0.936804
H    -0.554265    -2.518238     1.252159
H    -2.358933    -1.564517     2.495772
O    -2.172309    -2.030421     1.654180
H    -2.435337    -1.444633     0.925400
H     2.075333    -1.448314    -1.114298
O     2.312106    -1.699042    -0.197615
H     1.527052    -2.130894     0.189848
H    -1.391784     1.803848     1.931419
O    -1.479591     1.405957     2.807680
H    -1.465022     2.118389     3.472656
H     0.215804    -2.718225    -1.554554
O    -0.543447    -2.110660    -1.605929
H    -0.364763    -1.382969    -0.973277
H    -3.422371    -2.958811    -0.359259
O    -2.705369    -3.447409    -0.784204
H    -1.998663    -2.813663    -1.005049
H     2.783716     0.130476     2.936268
O     2.887559    -0.051067     3.897628
H     2.976175     0.842453     4.301536
H    -3.566471     6.346196    -0.517247
O    -3.335258     7.009120    -1.219317
H    -3.195259     7.855561    -0.750613
H     3.903078     0.590306     1.183531
O     2.953938     0.403614     1.303560
H     2.718504    -0.350485     0.725688
H    -5.793033     0.795697    -1.562869
O    -4.884015     1.128805    -1.444409
H    -4.995863     1.957122    -0.932775
H    -1.232058     5.377239     2.226132
O    -1.853673     4.626684     2.112673
H    -1.925010     4.208157     2.975855
H     3.479797     2.766728     0.422973
O     3.227493     2.721779    -0.514973
H     3.563622     1.881005    -0.866477
H     1.506221    -4.705744    -2.239544
O     1.568565    -3.927485    -1.667473
H     2.359557    -3.462601    -2.021947
H    -0.932197    -0.106888    -2.529085
O    -0.304263     0.549513    -2.857119
H    -0.042672     1.133404    -2.121746
H     1.722772    -4.691825    -0.169134
O     1.835904    -5.327632     0.573598
H     1.375979    -6.141656     0.279981
H    -1.221441    -3.289406    -2.857556
O    -1.048476    -3.972174    -3.519002
H    -0.914578    -4.818280    -3.050424
H    -2.778794     3.282253     4.729119
O    -1.797803     3.284399     4.690461
H    -1.499094     2.884969     5.525805
H     0.951534     5.027522     4.082978
O     0.004368     5.254411     4.138901
H    -0.461800     4.448837     4.399767
H    -1.708008    -4.675476    -0.346773
O    -0.938773    -5.211697    -0.064716
H    -1.279838    -5.900204     0.515490
H    -3.961382     5.794260    -2.570174
O    -4.310124     4.958690    -2.898691
H    -4.157325     4.924205    -3.867258
H    -2.403297    -3.716223     1.963423
O    -2.415641    -4.620406     2.339374
H    -1.473969    -4.853425     2.476346
H    -4.691907    -3.023378    -2.860704
O    -3.841044    -3.250466    -3.272140
H    -3.502354    -4.042249    -2.808779
H     0.350974     1.366643     4.627223
O     0.850730     2.129482     4.290366
H     0.899868     2.788942     4.996797
H    -4.634995    -5.210871    -1.533581
O    -5.336761    -4.860464    -0.957578
H    -5.117805    -5.213259    -0.073955
H     2.342727    -6.487350    -4.030924
O     2.007423    -6.159788    -3.176201
H     2.447899    -6.730847    -2.514500
H     0.466779    -3.394481    -3.991153
O     1.265502    -3.023105    -4.417748
H     0.940671    -2.654214    -5.265377
H     1.985568    -1.755622     2.988893
O     2.144430    -2.685865     2.771483
H     1.456934    -2.903502     2.107571
H    -3.019585    -1.842793    -3.181147
O    -2.602832    -0.953640    -3.118086
H    -3.262479    -0.311939    -3.436074
H    -3.213453     4.944290     1.104907
O    -3.999826     5.312441     0.653908
H    -4.413937     5.869390     1.361748
H     0.874350     2.244921     2.600213
O     0.970578     2.239834     1.628502
H     1.700605     1.620905     1.461565
H     0.155989     5.642621    -0.748158
O     0.671236     6.306927    -1.260131
H     0.812047     7.107871    -0.705529
H     0.315520     7.024576     2.599219
O    -0.048355     6.641374     1.783838
H     0.618376     5.974492     1.519809
H    -2.467451     0.189432     3.366080
O    -2.683072    -0.625702     3.871939
H    -1.919734    -0.660776     4.490674
H    -0.871966     0.537895     6.043119
O    -0.598913     0.019329     5.267703
H     0.119386    -0.579904     5.551602
H     0.743953    -5.004371     1.994648
O     0.205253    -5.116292     2.801209
H     0.356465    -6.035824     3.073582
H    -2.074691    -8.114317     0.476660
O    -1.751608    -7.623652     1.259896
H    -2.537490    -7.316949     1.719653
H    -0.427337     6.845464    -2.313810
O    -1.178498     7.260614    -2.810160
H    -1.965008     7.130770    -2.242666
H    -1.135028     4.289138     0.590592
O    -0.766730     4.351509    -0.307347
H    -1.474691     4.105508    -0.936353
H    -4.409694     2.711015     3.539121
O    -4.405348     2.882036     4.503403
H    -4.481816     1.998861     4.913608
H     2.060575    -3.584027     4.251982
O     2.002730    -4.056016     5.105724
H     2.510034    -3.516508     5.733801
H     4.707391    -3.184653     0.834910
O     4.542211    -3.110408    -0.130923
H     3.680499    -2.637755    -0.210821
H    -2.725113    -0.778839    -1.325010
O    -3.050906    -0.510399    -0.449512
H    -3.854257     0.011774    -0.653097
H    -1.632987    -0.787598    -4.609254
O    -1.131929    -0.568717    -5.415812
H    -0.423398     0.031268    -5.134448
H     1.788285    -1.722726    -3.369706
O     1.878930    -0.975027    -2.747357
H     1.098261    -0.402027    -2.875773
H     3.689627    -3.116606     2.550832
O     4.649499    -3.340416     2.473482
H     4.710069    -4.300153     2.600746
H     3.471119    -6.116620     3.126273
O     3.821671    -5.914456     2.224339
H     3.079984    -5.573063     1.684551
H    -3.371424     1.575027    -4.150820
O    -4.214685     1.101860    -3.956243
H    -4.426556     1.246308    -2.998123
H    -5.103654     4.106176     0.101859
O    -5.539391     3.238266    -0.001649
H    -6.471511     3.354756    -0.275559
H     6.733038    -1.162851    -1.377344
O     5.962240    -1.016966    -0.822475
H     5.548990    -1.886867    -0.622425
H     4.598399    -3.161718    -2.474443
O     3.727716    -2.995346    -2.886616
H     3.731249    -3.614581    -3.642435
H     4.470362    -2.282082     5.617857
O     4.133126    -2.749023     6.412605
H     4.472905    -3.652202     6.330174
H    -0.766757     6.322154     5.088692
O    -1.364366     6.895042     5.628877
H    -1.384192     7.771831     5.187085
H     4.691567    -0.127862    -1.472742
O     3.919995     0.410153    -1.732493
H     3.229513    -0.194473    -2.059153
H    -0.785822     4.501945    -4.022696
O    -1.572816     5.040302    -4.226907
H    -1.423448     5.908375    -3.806331
H     0.629710     3.190403    -2.648824
O     0.629994     3.566380    -3.557685
H     0.679916     2.802850    -4.142866
H    -5.349942    -5.235593     1.835629
O    -4.651890    -5.825847     1.476158
H    -3.812032    -5.406480     1.743889
H     7.870872    -1.667169    -4.053415
O     7.615253    -1.354675    -3.152848
H     7.123422    -0.513451    -3.307785
H     3.703061    -5.071879    -5.289111
O     4.465507    -4.693985    -4.811599
H     4.856344    -5.402671    -4.267237
H    -3.763919    -0.013625     4.965823
O    -4.364736     0.447772     5.600198
H    -5.019712    -0.213775     5.896071
H     3.492001    -5.940043    -0.516895
O     4.361849    -5.688330    -0.838931
H     4.433807    -4.725563    -0.696075
H     4.982404    -0.327907    -4.168261
O     4.448796    -1.042164    -4.555217
H     4.129377    -1.626960    -3.835561
H    -1.200149     1.548051    -3.918176
O    -1.856455     2.164021    -4.301682
H    -1.503777     2.497612    -5.149505
H     4.906465    -6.313467    -2.318634
O     5.237030    -6.637206    -3.185581
H     6.058402    -7.113720    -3.002304
H     8.752418    -5.063659    -2.939696
O     8.065729    -5.484548    -2.378035
H     8.105011    -6.441769    -2.479529
H     2.313749     4.717055     0.452287
O     1.737669     4.696581     1.225777
H     1.385862     3.774404     1.305901
H    -4.384394    -2.670068     4.266837
O    -5.281071    -2.335703     4.067342
H    -5.150776    -1.553715     3.491719
H    -5.824992    -3.240324     1.359716
O    -6.284224    -3.798145     2.029548
H    -6.092471    -3.362607     2.879446
H     1.696915     3.467201     6.866830
O     1.068720     3.978813     6.335323
H     0.287672     4.128414     6.910507
H     5.026652    -2.155827     3.609497
O     5.046172    -1.436965     4.272993
H     4.230752    -0.885150     4.119575
H     2.439509    -5.576038     4.845794
O     2.822998    -6.457987     4.584543
H     2.080320    -7.043668     4.414417
H     2.248895    -4.524527    -6.783300
O     2.085808    -5.013039    -5.966513
H     1.820752    -4.322810    -5.310389
H     6.457218    -4.085353    -0.515240
O     7.214588    -4.483971    -0.054968
H     7.721005    -4.904591    -0.777631
H    -1.716488     4.471468     7.719781
O    -0.816427     4.574570     8.100954
H    -0.640456     5.534704     8.124049
H    -5.175652     5.647216    -5.563930
O    -4.565346     4.885897    -5.585931
H    -3.811214     5.103787    -6.155044
H     3.255188    -2.531823    -8.435840
O     3.173742    -3.063770    -7.633381
H     4.052310    -3.034957    -7.208783
H    -0.718532     8.806913    -2.267660
O    -0.598082     9.636203    -1.749694
H     0.167927     9.466557    -1.176450
H     2.092500    -0.913154     5.217243
O     1.524700    -1.441391     5.807377
H     1.621146    -1.095330     6.704043
H     5.188966    -2.016559    -5.700875
O     5.536722    -2.781410    -6.223839
H     5.269553    -3.572409    -5.704420
H     5.741553    -5.197048     4.678378
O     5.222500    -5.114109     5.507290
H     4.504191    -5.750237     5.425612
H    -3.951053     1.115417     7.038174
O    -3.757677     1.592952     7.880606
H    -4.634626     1.974121     8.145218
H    -1.907601     9.589335    -0.730455
O    -2.765439     9.458230    -0.252459
H    -3.381387     10.083794    -0.637489
H    -5.987996     4.642451    -2.901395
O    -6.898291     4.514492    -3.238958
H    -6.805162     3.815015    -3.918518
H     0.124560    -7.080118    -1.124472
O     0.594487    -7.512736    -0.378493
H    -0.080615    -7.711011     0.273546
H    -7.664388     3.735733    -1.929614
O    -7.926180     3.149320    -1.188322
H    -7.776272     2.240144    -1.523279
H     4.007321    -0.881672     6.983553
O     4.010574     0.082508     6.973445
H     4.819512     0.376429     6.538254
H     2.220302     5.792103    -1.180077
O     3.157756     5.504349    -1.069647
H     3.333890     4.964711    -1.863276
H     6.582664    -5.910239     0.661115
O     6.220329    -6.648149     1.196920
H     5.315400    -6.375710     1.427678
H    -3.860887     4.699836     7.808906
O    -3.295040     4.239592     7.147355
H    -3.482530     3.295215     7.259847
H     5.802806    -7.930776     0.132132
O     5.515717    -8.619944    -0.503514
H     4.683091    -8.299164    -0.894275
H    -0.535996     2.029910     7.708435
O    -1.172276     1.961266     6.976297
H    -2.038080     1.815330     7.377114
H    -6.376451    -0.169229     1.103741
O    -6.705511    -0.254950     0.193726
H    -7.621658    -0.532562     0.222979
H    -5.359474    -3.108824    -0.546980
O    -5.109277    -2.403477     0.076126
H    -5.683880    -1.634082    -0.109895
H     4.287328     5.585742     0.310729
O     4.624584     5.688841     1.214393
H     3.929484     6.195909     1.669334
H    -8.997695    -1.882588    -2.177075
O    -8.494437    -1.654583    -1.373632
H    -8.579524    -2.402278    -0.731890
H    -5.572450     3.421477    -5.491224
O    -6.083361     2.707990    -5.072626
H    -5.409368     2.128405    -4.661991
H     3.157379    -0.891348    -5.654645
O     2.299869    -1.016329    -6.116279
H     2.388084    -1.865144    -6.589682
H     8.091963    -1.327189    -6.050494
O     8.106744    -2.190663    -5.593232
H     7.251685    -2.595506    -5.839719
H     7.584529     1.010466    -6.330976
O     7.398199     0.160770    -6.742528
H     6.417016     0.105551    -6.774365
H    -7.841726    -3.743679     0.979139
O    -8.521243    -3.642211     0.294671
H    -8.421016    -4.405507    -0.302108
H    -2.449993     8.710591     1.311122
O    -2.293104     8.123130     2.063754
H    -1.520612     7.574334     1.838333
H    -4.464324     6.400577     3.526174
O    -4.640749     6.824311     2.669725
H    -3.881419     7.414713     2.526342
H     3.364023     3.446419    -3.581192
O     3.205775     4.414882    -3.487807
H     2.240186     4.474422    -3.591330
H    -6.123248    -1.655276    -3.398619
O    -6.201665    -2.232196    -2.612529
H    -6.983033    -1.927550    -2.101250
H     6.481118     1.072587     4.723735
O     6.087214     1.609815     5.427928
H     6.269098     2.529252     5.135423
H     1.323672     1.709473    -5.815887
O     1.135285     1.113155    -5.060346
H     1.502837     0.252001    -5.330963
H    -2.460092     2.944298     10.507221
O    -2.244314     2.037626     10.233580
H    -2.844333     1.834207     9.504172
H     7.641466    -0.470276     3.063607
O     6.889007     0.101408     3.235164
H     6.201837    -0.502315     3.618409
H    -5.622326    -8.099482    -0.653957
O    -4.884106    -8.163304    -0.011080
H    -4.890014    -7.345763     0.510353
H    -5.196617    -0.165534    -4.677650
O    -5.813416    -0.879930    -4.911300
H    -6.647628    -0.438719    -5.121948
H     1.854587    -0.209719    -7.509122
O     1.646392     0.260481    -8.352334
H     2.222054    -0.142207    -9.007937
H     4.834670    -1.390434    -9.310749
O     3.907005    -1.166664    -9.588821
H     3.883125    -1.285482    -10.537670
H     7.593626    -2.542771     4.182119
O     7.736222    -2.578817     3.221993
H     7.246010    -3.372626     2.953082
H     6.761276    -5.872609     2.673487
O     6.822444    -5.196429     3.373713
H     7.700678    -5.276442     3.787698
H    -1.854989     8.926473     3.512310
O    -1.604832     9.233120     4.409240
H    -2.452195     9.361660     4.868506
H    -7.370339     1.603830    -5.161144
O    -7.956471     0.860193    -4.921465
H    -8.852221     1.264026    -4.819668
H     6.891094    -1.068794    -8.420526
O     6.311589    -1.793017    -8.680849
H     6.090122    -2.243539    -7.847543
H    -1.744982     6.211160    -7.006079
O    -2.137792     5.384665    -6.728848
H    -1.883028     5.256289    -5.766626
H     0.021554     3.304115     9.035083
O     0.224431     2.385538     9.289831
H    -0.570090     2.117714     9.800341
H     6.755794    -2.761662    -2.718929
O     6.230766    -3.508410    -2.374957
H     6.702648    -4.316930    -2.622676
H    -4.086017    -3.113394    -4.908179
O    -4.244577    -3.002708    -5.872400
H    -4.795694    -2.212788    -5.929124
H     2.004317     2.186818     8.469087
O     2.664118     2.302089     7.775613
H     3.090657     1.434083     7.659281
H    -6.888966    -5.253368    -1.346988
O    -7.805423    -5.524517    -1.588062
H    -7.944567    -5.125686    -2.471560
H    -3.831594     5.226956     5.724813
O    -3.805767     5.994669     5.132691
H    -2.873029     6.294432     5.222502
H    -7.854531     0.041786    -1.825779
O    -7.391162     0.776709    -2.253395
H    -7.612438     0.782284    -3.207170
H     5.835951     0.146245     0.399939
O     5.612804     0.867077     1.021183
H     6.127943     0.675487     1.831923
H    -6.201943     3.270975     7.436264
O    -6.067294     2.754154     8.264685
H    -6.663994     1.989637     8.180113
H     2.314094    -8.077363    -0.831196
O     2.987518    -8.061488    -1.530798
H     2.763792    -8.777498    -2.142105
H    -2.754246    -3.996257    -6.167138
O    -1.996772    -4.558179    -5.937774
H    -1.717919    -4.264300    -5.042217
H    -5.641936     3.722556     5.346658
O    -6.290940     4.116162     5.965753
H    -6.131526     5.060918     5.951991
H    -0.998258    -7.136996    -3.137653
O    -0.527245    -6.463897    -2.612341
H     0.378379    -6.390536    -2.997115
H     4.454363     2.029962     5.121785
O     3.510885     2.264202     5.005761
H     3.130695     2.279225     5.889462
H     4.110870     4.669966     6.293268
O     4.184960     5.399963     5.674165
H     3.615073     5.155749     4.906165
H     2.760977     3.621098     3.922119
O     2.577400     4.560027     3.756012
H     2.453213     4.657090     2.790077
H     9.384751     0.244557    -1.099226
O     8.579958     0.403640    -0.602432
H     8.410805    -0.415563    -0.107585
H    -2.083355     5.305471     10.670670
O    -2.801004     4.673330     10.905797
H    -3.016184     4.850329     11.821782
H     7.987472    -2.982146     0.308711
O     8.405170    -2.132966     0.561113
H     8.343841    -2.127553     1.523724
H     5.364643     3.681888     3.512370
O     6.022519     3.951336     4.175293
H     5.608496     4.667724     4.678283
H    -4.193634     4.995934     9.814648
O    -4.830744     5.142479     9.095233
H    -5.438703     4.390692     9.096695
H    -7.011023    -3.532702    -3.432705
O    -7.637476    -4.136076    -3.883304
H    -7.117089    -4.583990    -4.582657
H     0.041420     6.125223     10.780416
O    -0.826070     6.451620     10.536706
H    -0.716504     6.882141     9.669586
H     2.560059     1.490854    -4.103558
O     3.437481     1.848658    -3.869227
H     3.764244     1.336096    -3.099741
H    -6.941316    -0.262088     7.266810
O    -7.452536     0.514192     7.548385
H    -8.080208     0.693271     6.847184
H    -2.697302    -9.902774    -0.793595
O    -2.639979    -8.960903    -0.954388
H    -3.546615    -8.599226    -0.710060
H    -10.281153     2.929770    -4.857551
O    -10.310630     2.058473    -4.438477
H    -10.365252     2.316948    -3.482736
H    -2.033628    -3.044881     4.641210
O    -2.906258    -3.488993     4.714817
H    -2.899934    -4.108091     3.959632
H    -0.127940    -7.995534     2.508469
O     0.699266    -7.779938     2.952329
H     1.416546    -8.072889     2.362780
H     6.744650    -2.349085     6.379046
O     7.195496    -3.056994     5.914030
H     6.569216    -3.795157     5.879423
H    -5.232832    -2.037975     6.984724
O    -5.913801    -1.543929     6.503149
H    -5.900029    -1.922112     5.594572
H     0.785089     3.016329    -7.106410
O     1.703971     2.689971    -7.166055
H     1.691446     1.941941    -7.791360
H    -3.972752     8.729259     6.697515
O    -3.975557     8.725716     5.740153
H    -4.097058     7.797134     5.474392
H    -2.129356     10.286684    -2.722736
O    -3.033396     10.462571    -3.020767
H    -2.968563     11.096762    -3.734121
H     9.447346    -4.023018     4.019922
O     9.173790    -4.701931     4.644387
H     8.745398    -4.231025     5.370129
H    -0.732841    -6.020849    -5.817056
O    -0.025092    -6.583068    -5.485428
H     0.807117    -6.117919    -5.707925
H     1.782548     8.271525     0.663080
O     1.473268     8.590585    -0.213450
H     2.285261     8.632538    -0.747776
H     3.449772     2.927630    -6.666224
O     4.280730     2.642142    -6.260514
H     4.041289     2.368026    -5.350245
H     3.687579     7.129168    -1.238883
O     3.887139     8.065737    -1.454370
H     4.252689     8.010615    -2.349269
H     4.356101    -0.006295    -7.917196
O     4.736123     0.142843    -7.049543
H     4.550965     1.074139    -6.806269
H     6.015580     1.949673    -0.490044
O     6.576133     2.145048    -1.254768
H     7.404175     1.669952    -1.064309
H     6.717939    -8.412528    -1.614895
O     7.349204    -8.199182    -2.354680
H     7.719309    -9.031690    -2.643252
H    -5.300151    -5.835824    -5.361273
O    -5.923163    -5.165533    -5.668049
H    -5.376849    -4.397214    -5.914675
H     0.677131     7.170895     7.606184
O    -0.222884     7.193928     7.969805
H    -0.782269     7.205056     7.154983
H    -8.791834    -2.892072    -4.140400
O    -9.255897    -2.034171    -4.026242
H    -8.769776    -1.414429    -4.585922
H    -2.392026    -6.016399    -2.111854
O    -3.272725    -5.734481    -2.376977
H    -3.461704    -6.111613    -3.261478
H    -2.983596    -5.934617    -5.375289
O    -3.578048    -6.546423    -4.898833
H    -3.091496    -7.364469    -4.734483
H    -1.445150     3.698989    -6.965266
O    -0.900246     2.946328    -6.695138
H    -1.134408     2.159453    -7.243876
H    -0.246707     0.395061    -8.200823
O    -1.142409     0.626214    -7.912880
H    -1.311150     0.101768    -7.114225
H    -10.351666     4.123944    -2.663784
O    -10.448915     3.365979    -2.066379
H    -9.586354     3.319286    -1.597952
H     4.564072     4.092035     1.710394
O     4.361639     3.170184     1.990378
H     5.079384     2.597808     1.706658
H     6.456065     1.413768    -4.235988
O     6.159280     0.788834    -3.540015
H     6.191772     1.285252    -2.696831
H     9.637340    -2.191135    -0.957001
O     9.908620    -1.976035    -1.858239
H     9.104433    -1.642058    -2.298283
H     9.969425    -3.286320    -3.126707
O     9.702504    -3.940409    -3.799692
H     9.302980    -3.435596    -4.518704
H    -7.663909    -8.630221    -1.609519
O    -6.930275    -8.030951    -1.739069
H    -7.313417    -7.120909    -1.729074
H     4.108272     6.085103    -3.831121
O     4.765909     6.789969    -3.749611
H     5.605242     6.340694    -3.615881
H     0.113522    -8.188840    -5.193366
O     0.142762    -9.171393    -5.060368
H     0.291048    -9.535602    -5.933128
H    -2.302625    -8.702260    -2.682090
O    -2.074731    -8.437590    -3.592855
H    -1.426786    -9.052995    -3.954595
H     2.221052    -10.822332    -3.480537
O     2.169775    -9.868040    -3.456662
H     1.380651    -9.601976    -3.979674
H     6.794304     3.347932    -4.594568
O     6.852653     2.669191    -5.294857
H     6.056123     2.797697    -5.832151
H    -3.512040    -3.746863     7.756049
O    -3.633252    -2.960470     7.225430
H    -3.384609    -3.199211     6.306377
H    -0.653947    -3.385931    -6.703709
O    -0.027679    -2.651151    -6.714243
H    -0.511987    -1.877792    -6.371752
H     0.676900     0.459393     8.764146
O     0.685037    -0.255878     8.124108
H    -0.236044    -0.549766     8.041312
H    -5.894731     7.321086    -4.216992
O    -6.397562     6.698583    -4.774229
H    -6.677784     5.968031    -4.180314
H    -4.345098     9.064254    -3.237868
O    -4.875782     8.265235    -3.127777
H    -4.460826     7.789279    -2.390217
H    -9.770667     5.716069    -4.590841
O    -10.299419     4.908034    -4.429121
H    -11.182609     5.112002    -4.738670
H     2.759938     6.522748     6.136063
O     1.799783     6.614267     6.238148
H     1.460644     5.698987     6.138450
H     4.756137     8.559060     0.068368
O     5.077558     8.562416     0.987891
H     5.490003     7.700570     1.117708
H     4.158651    -7.422455    -4.340008
O     3.399261    -7.711567    -4.878188
H     3.125498    -8.553824    -4.500159
H     0.348462     8.652638     4.239237
O     1.028155     8.011088     4.008381
H     1.261384     7.520492     4.822524
H     5.195733     4.201956    -3.171090
O     6.157542     4.177136    -3.122771
H     6.373093     3.597520    -2.375399
H    -2.537659    -1.564168     7.601695
O    -2.030583    -0.767860     7.818013
H    -2.657649    -0.144736     8.195282
H    -9.093513     7.872125    -4.097661
O    -9.032745     7.280023    -4.848737
H    -8.075641     7.125330    -4.992986
H     3.579108    -8.974343     1.097610
O     2.900348    -8.345715     1.348729
H     3.372141    -7.537749     1.625836
H     3.546847     8.179123     1.819527
O     2.759733     7.611672     1.936110
H     2.316382     7.845855     2.764220
N    -11.698579    -0.550969    -5.284260
H    -11.393246     0.322497    -5.003104
H    -11.116094    -1.169879    -4.825649
