27
Coordinates from ORCA-job grain_mol_opt.QMRegion
  H   -5.67093106752042      0.88640196694346     -1.53233199914959
  O   -4.76814070075736      1.23777635479840     -1.48422850162113
  H   -4.85334305813100      2.11474638219207     -1.05760620705265
  H   -4.97915160537099      4.23954680260258      0.10641222203163
  O   -5.41950658009600      3.37928845325439     -0.07308322647906
  H   -6.35853053908837      3.51185294482692     -0.28786165472964
  H   -7.65400454260870      3.83046041798727     -2.01248541862269
  O   -7.90995114115537      3.19553616056078     -1.30602777550617
  H   -7.74827255494793      2.31328759480883     -1.73474570998663
  H   -6.25587194743614     -0.09635827687730      1.13403648026189
  O   -6.63341114752279     -0.09120602945427      0.23496248103213
  H   -7.58547638055682      0.02636266909264      0.35647092314938
  H   -9.06676718833484     -1.83192141175553     -2.28081099575365
  O   -8.54069319923031     -1.55200662943486     -1.50449107388026
  H   -8.60494487242943     -2.26228267475333     -0.82146662363406
  H   -7.86717152871444      0.06199430909289     -2.01677593101896
  O   -7.38285856366626      0.79642118448301     -2.43710754518528
  H   -7.63954507470091      0.78468087925811     -3.38630162909493
  H   -10.01114642047890      3.10914912574599     -4.95290981798214
  O   -10.23965807083332      2.19528746055584     -4.72548659543408
  H   -10.42129348905168      2.28545503450702     -3.76976997869438
  H   -10.51271199020985      4.14662899527058     -2.84691454384558
  O   -10.59618953028177      3.42090101322672     -2.20702124639287
  H   -9.71399892057296      3.39264334792558     -1.78923999886198
  O   -9.22996952232643      0.97840960828263      0.50507076022879
  H   -9.10437709731539      1.86473683091368      0.14205276068671
  H   -9.84834448516299      0.55160143953912     -0.09588072316771
