603

H     0.222752     3.034128    -0.650620
O     0.747361     2.367869    -1.143808
H     1.685105     2.492051    -0.860971
H    -0.074713    -1.307951     3.172972
O     0.319742    -0.608076     2.630405
H    -0.156328     0.206567     2.861937
H    -2.381140     2.415580    -0.518436
O    -2.175443     1.944086     0.306230
H    -2.188089     0.996592     0.079635
H    -4.655988     0.549942     2.189029
O    -4.973713    -0.383317     2.199872
H    -4.466527    -0.860245     1.534701
H     0.076337    -0.306237     0.973442
O    -0.122253    -0.067516     0.047368
H     0.223669     0.826963    -0.071876
H    -0.155007    -3.578230     3.795887
O    -0.435747    -2.749573     4.218009
H     0.209227    -2.579531     4.920867
H    -4.875734     2.534428     1.339136
O    -4.238799     2.124033     1.955910
H    -3.394251     2.106100     1.445638
H    -3.225168     3.905298    -2.195792
O    -2.489064     3.307462    -1.962853
H    -2.126771     3.021017    -2.821421
H    -0.115206    -3.802255     0.521150
O     0.223649    -2.986368     0.942560
H    -0.564060    -2.498726     1.251161
H    -2.373266    -1.536976     2.482044
O    -2.182624    -2.002754     1.641559
H    -2.436379    -1.414144     0.911571
H     2.090226    -1.440104    -1.093169
O     2.318713    -1.698894    -0.176989
H     1.527075    -2.122752     0.204830
H    -1.381075     1.825323     1.932036
O    -1.478901     1.427495     2.807438
H    -1.464879     2.139208     3.472672
H     0.227157    -2.697600    -1.549400
O    -0.528847    -2.086534    -1.605268
H    -0.350653    -1.360027    -0.970806
H    -3.422423    -2.919839    -0.383865
O    -2.704294    -3.412139    -0.802826
H    -1.992737    -2.781687    -1.017782
H     2.780195     0.124873     2.962488
O     2.872378    -0.057763     3.928248
H     2.959077     0.834973     4.330266
H    -3.510865     6.385771    -0.524933
O    -3.270283     7.049480    -1.223255
H    -3.129012     7.893625    -0.751228
H     3.900266     0.589210     1.231974
O     2.945113     0.397932     1.347146
H     2.720941    -0.348747     0.758445
H    -5.761469     0.850988    -1.601083
O    -4.851354     1.177639    -1.471357
H    -4.963374     2.005467    -0.959136
H    -1.203538     5.398063     2.234907
O    -1.829231     4.651957     2.116412
H    -1.909265     4.231627     2.977808
H     3.487343     2.656437     0.403813
O     3.292954     2.680957    -0.549590
H     3.544026     1.798945    -0.889376
H     1.510781    -4.692042    -2.229197
O     1.573097    -3.916213    -1.654128
H     2.368989    -3.453862    -2.000913
H    -0.898467    -0.077177    -2.527385
O    -0.264108     0.575819    -2.849746
H    -0.003286     1.156615    -2.111469
H     1.711894    -4.682704    -0.156001
O     1.815664    -5.321352     0.585952
H     1.352636    -6.131472     0.286912
H    -1.203527    -3.257722    -2.865588
O    -1.029404    -3.940875    -3.526525
H    -0.904454    -4.788119    -3.057856
H    -2.781864     3.307537     4.721306
O    -1.800416     3.305669     4.691759
H    -1.511197     2.901229     5.527856
H     0.963976     5.031686     4.107493
O     0.018367     5.265306     4.159402
H    -0.455858     4.461658     4.411827
H    -1.717621    -4.646071    -0.360933
O    -0.954161    -5.188471    -0.074434
H    -1.304221    -5.874984     0.502614
H    -3.891849     5.840621    -2.581939
O    -4.242696     5.007547    -2.914153
H    -4.083594     4.973471    -3.881657
H    -2.425556    -3.687350     1.945680
O    -2.445719    -4.592049     2.320418
H    -1.506465    -4.830566     2.463767
H    -4.673065    -2.970620    -2.896156
O    -3.819760    -3.203698    -3.300212
H    -3.490217    -3.997445    -2.834228
H     0.337437     1.373873     4.640237
O     0.846691     2.134054     4.311757
H     0.889880     2.792437     5.019098
H    -4.638373    -5.162485    -1.571084
O    -5.342294    -4.809827    -0.999390
H    -5.132088    -5.165053    -0.114894
H     2.351089    -6.474659    -4.017473
O     2.011067    -6.147467    -3.164616
H     2.443376    -6.721691    -2.500485
H     0.492301    -3.371313    -3.985984
O     1.296829    -3.005549    -4.406556
H     0.980603    -2.631140    -5.254963
H     1.968499    -1.753552     3.006596
O     2.121626    -2.685780     2.792778
H     1.439369    -2.897344     2.121531
H    -2.991175    -1.800227    -3.200041
O    -2.568925    -0.914119    -3.132410
H    -3.222786    -0.267630    -3.453472
H    -3.178528     4.978961     1.097335
O    -3.958627     5.353506     0.640984
H    -4.375933     5.910453     1.346343
H     0.883470     2.252110     2.617932
O     0.985213     2.250113     1.647588
H     1.716278     1.629187     1.483161
H     0.208601     5.660602    -0.728598
O     0.730430     6.323916    -1.235327
H     0.872128     7.122255    -0.677921
H     0.350976     7.035355     2.623171
O    -0.008964     6.656133     1.804557
H     0.655182     5.985172     1.543189
H    -2.477993     0.215600     3.355189
O    -2.702557    -0.598549     3.858934
H    -1.943723    -0.639860     4.482426
H    -0.901153     0.549299     6.045975
O    -0.624680     0.031059     5.271798
H     0.087679    -0.573238     5.559320
H     0.713892    -4.993421     1.999116
O     0.168985    -5.104490     2.801661
H     0.312479    -6.025544     3.072659
H    -2.110649    -8.084455     0.453305
O    -1.790825    -7.598338     1.240671
H    -2.578543    -7.286418     1.693798
H    -0.355141     6.870378    -2.295774
O    -1.099953     7.291756    -2.796977
H    -1.891608     7.164295    -2.236192
H    -1.100328     4.311934     0.597938
O    -0.724847     4.375806    -0.296614
H    -1.428482     4.133479    -0.931945
H    -4.406500     2.748401     3.517958
O    -4.408457     2.917616     4.482923
H    -4.493529     2.033951     4.890342
H     2.020947    -3.585336     4.268801
O     1.955167    -4.059122     5.121384
H     2.458678    -3.522550     5.754473
H     4.696470    -3.193960     0.873563
O     4.538377    -3.121269    -0.093160
H     3.681483    -2.639763    -0.179326
H    -2.704721    -0.741831    -1.339315
O    -3.035858    -0.473699    -0.465739
H    -3.834590     0.053742    -0.674869
H    -1.587380    -0.750317    -4.615240
O    -1.077830    -0.534164    -5.417407
H    -0.368744     0.062115    -5.129343
H     1.817267    -1.709155    -3.352054
O     1.907386    -0.964095    -2.727093
H     1.132484    -0.384534    -2.860093
H     3.667080    -3.122520     2.581776
O     4.626164    -3.353511     2.514100
H     4.677669    -4.314209     2.637196
H     3.425584    -6.124284     3.149185
O     3.784617    -5.923073     2.250520
H     3.049469    -5.575555     1.705346
H    -3.315182     1.621114    -4.164780
O    -4.161589     1.151327    -3.977688
H    -4.381697     1.295634    -3.021468
H    -5.067369     4.153237     0.076933
O    -5.506428     3.287674    -0.028327
H    -6.435575     3.407834    -0.313581
H     6.750199    -1.194678    -1.336282
O     5.983037    -1.040973    -0.780517
H     5.556572    -1.903779    -0.580661
H     4.612783    -3.164880    -2.436052
O     3.746627    -2.993983    -2.855121
H     3.752902    -3.611060    -3.612382
H     4.429901    -2.298811     5.653451
O     4.086836    -2.763240     6.447336
H     4.417608    -3.669803     6.364966
H    -0.755143     6.334832     5.103507
O    -1.352422     6.910766     5.640881
H    -1.365202     7.788008     5.199616
H     4.717532    -0.127028    -1.426458
O     3.950498     0.409225    -1.699901
H     3.259664    -0.194210    -2.025673
H    -0.713532     4.531796    -4.011357
O    -1.495107     5.075872    -4.221847
H    -1.344243     5.941809    -3.797705
H     0.685371     3.209933    -2.628417
O     0.692183     3.587662    -3.536878
H     0.743350     2.824863    -4.122861
H    -5.379170    -5.189519     1.791839
O    -4.681685    -5.784468     1.438527
H    -3.841810    -5.369122     1.712194
H     7.907883    -1.685650    -3.985917
O     7.649294    -1.371223    -3.086828
H     7.158606    -0.528725    -3.246952
H     3.728912    -5.064592    -5.262005
O     4.490698    -4.692927    -4.778493
H     4.872114    -5.404718    -4.231770
H    -3.787625     0.017715     4.944419
O    -4.389919     0.481046     5.576454
H    -5.051775    -0.177019     5.864470
H     3.475906    -5.940973    -0.493938
O     4.350412    -5.694258    -0.807182
H     4.425839    -4.731725    -0.662040
H     5.026839    -0.329559    -4.121780
O     4.493897    -1.041509    -4.514825
H     4.163722    -1.623597    -3.798042
H    -1.145505     1.581106    -3.915454
O    -1.794939     2.201668    -4.303345
H    -1.433560     2.534529    -5.147487
H     4.902066    -6.318978    -2.283971
O     5.237566    -6.643658    -3.148834
H     6.054787    -7.124937    -2.960027
H     8.760604    -5.090488    -2.872898
O     8.067830    -5.508768    -2.316961
H     8.101307    -6.465914    -2.421017
H     2.355391     4.719176     0.491493
O     1.769970     4.702777     1.258566
H     1.414508     3.780607     1.332338
H    -4.418207    -2.633854     4.235727
O    -5.311368    -2.293373     4.031210
H    -5.172098    -1.511911     3.456596
H    -5.839461    -3.190878     1.316299
O    -6.304826    -3.748401     1.982613
H    -6.118797    -3.313958     2.834188
H     1.677775     3.461964     6.895733
O     1.058682     3.980660     6.360640
H     0.272560     4.132561     6.928404
H     5.002754    -2.167952     3.651649
O     5.021685    -1.449756     4.315935
H     4.208029    -0.895773     4.156004
H     2.384337    -5.580870     4.861732
O     2.764895    -6.464832     4.602929
H     2.020085    -7.045432     4.424768
H     2.290041    -4.506361    -6.765862
O     2.117836    -4.995775    -5.951490
H     1.851143    -4.304990    -5.296118
H     6.451247    -4.103556    -0.463944
O     7.203885    -4.506671     0.000396
H     7.712505    -4.929229    -0.719592
H    -1.735573     4.484286     7.723473
O    -0.837705     4.582115     8.111674
H    -0.657163     5.541211     8.137757
H    -5.083968     5.706518    -5.584451
O    -4.477049     4.942564    -5.603740
H    -3.717312     5.157337    -6.166326
H     3.320790    -2.516076    -8.406496
O     3.230573    -3.050434    -7.606606
H     4.105494    -3.026052    -7.174315
H    -0.636090     8.832999    -2.247922
O    -0.514501     9.661114    -1.727887
H     0.246364     9.485501    -1.149461
H     2.060846    -0.916597     5.237657
O     1.487581    -1.443109     5.824699
H     1.578021    -1.097573     6.722036
H     5.236224    -2.016969    -5.655433
O     5.584023    -2.782820    -6.177553
H     5.307717    -3.573229    -5.662182
H     5.689040    -5.220701     4.720574
O     5.165392    -5.136414     5.546433
H     4.443110    -5.767188     5.457867
H    -3.984117     1.143305     7.017760
O    -3.794479     1.618111     7.862901
H    -4.671305     2.003770     8.121168
H    -1.831212     9.619663    -0.718417
O    -2.693110     9.493866    -0.246118
H    -3.302868     10.122328    -0.636276
H    -5.923597     4.699728    -2.930642
O    -6.831270     4.581329    -3.277837
H    -6.738718     3.879566    -3.955331
H     0.107014    -7.060082    -1.128795
O     0.568460    -7.497754    -0.380372
H    -0.112934    -7.692307     0.266238
H    -7.616311     3.801045    -1.972255
O    -7.880899     3.213547    -1.233714
H    -7.736779     2.305106    -1.573537
H     3.959189    -0.901036     7.020873
O     3.972966     0.063374     7.014555
H     4.786414     0.348907     6.583789
H     2.278302     5.798188    -1.144337
O     3.213322     5.508300    -1.024778
H     3.394741     4.965612    -1.814820
H     6.557341    -5.931283     0.708812
O     6.187339    -6.667594     1.241489
H     5.281628    -6.390901     1.464495
H    -3.879223     4.725703     7.796161
O    -3.309955     4.263386     7.139153
H    -3.504989     3.319976     7.247047
H     5.770129    -7.946136     0.170113
O     5.484330    -8.632505    -0.469027
H     4.656419    -8.306333    -0.865565
H    -0.569694     2.036215     7.716829
O    -1.200318     1.973580     6.979558
H    -2.070344     1.831566     7.372638
H    -6.373728    -0.115559     1.063694
O    -6.691479    -0.197874     0.149810
H    -7.610342    -0.468346     0.164851
H    -5.359300    -3.056746    -0.587118
O    -5.109397    -2.355771     0.040915
H    -5.677729    -1.582028    -0.148091
H     4.236821     5.654405     0.335874
O     4.558014     5.766811     1.249522
H     3.840478     6.293646     1.654865
H    -9.025289    -1.733920    -2.262299
O    -8.480132    -1.533450    -1.474151
H    -8.609539    -2.270868    -0.837815
H    -5.492273     3.483648    -5.519284
O    -6.011390     2.772879    -5.106950
H    -5.346283     2.186698    -4.691621
H     3.211121    -0.880383    -5.622683
O     2.356871    -0.999653    -6.092076
H     2.443500    -1.848278    -6.565718
H     8.145549    -1.344087    -5.981023
O     8.152199    -2.208845    -5.525756
H     7.296305    -2.607617    -5.779571
H     7.653658     0.996721    -6.260530
O     7.466491     0.149101    -6.676164
H     6.485169     0.099387    -6.715263
H    -7.853338    -3.685639     0.922666
O    -8.529792    -3.577947     0.236457
H    -8.429647    -4.336572    -0.365932
H    -2.395014     8.740184     1.317494
O    -2.246350     8.151379     2.070820
H    -1.476418     7.597428     1.849154
H    -4.439626     6.437894     3.512170
O    -4.607142     6.865339     2.655927
H    -3.842705     7.450555     2.518896
H     3.427810     3.452484    -3.538904
O     3.273243     4.421695    -3.446472
H     2.308724     4.485834    -3.556048
H    -6.093081    -1.594733    -3.441294
O    -6.179254    -2.174953    -2.658344
H    -6.964392    -1.867474    -2.151776
H     6.505595     1.034338     4.869395
O     6.095639     1.553799     5.577573
H     6.240269     2.479156     5.284666
H     1.393351     1.731207    -5.793522
O     1.193891     1.134150    -5.041742
H     1.560478     0.271975    -5.309810
H    -2.509653     2.956847     10.501758
O    -2.296417     2.049623     10.228062
H    -2.892061     1.850688     9.493752
H     7.526778    -0.670917     3.130934
O     6.853351    -0.000936     3.308729
H     6.134112    -0.562789     3.709919
H    -5.649244    -8.046615    -0.705475
O    -4.916725    -8.116631    -0.056581
H    -4.921479    -7.299703     0.465982
H    -5.150018    -0.106992    -4.709438
O    -5.766778    -0.818189    -4.952004
H    -6.603950    -0.375798    -5.152475
H     1.926358    -0.187619    -7.486195
O     1.727372     0.284523    -8.330636
H     2.306475    -0.120159    -8.981906
H     4.913715    -1.382433    -9.266878
O     3.989619    -1.153115    -9.552232
H     3.972708    -1.269879    -10.501445
H     7.558631    -2.579031     4.245840
O     7.712753    -2.612864     3.287179
H     7.217529    -3.400935     3.010031
H     6.719957    -5.897971     2.722289
O     6.781244    -5.223526     3.424441
H     7.655243    -5.311649     3.844972
H    -1.815459     8.948554     3.523437
O    -1.570562     9.251910     4.423167
H    -2.420896     9.384626     4.875708
H    -7.360134     1.581300    -5.250148
O    -7.936291     0.837187    -5.008038
H    -8.837964     1.237207    -4.934480
H     6.964175    -1.073933    -8.360310
O     6.383713    -1.795163    -8.626824
H     6.152279    -2.245131    -7.795863
H    -1.637947     6.253414    -6.998317
O    -2.038068     5.428538    -6.726855
H    -1.792157     5.296009    -5.762612
H    -0.015238     3.305491     9.049265
O     0.181811     2.385820     9.304915
H    -0.618558     2.120963     9.807915
H     6.774728    -2.778161    -2.665933
O     6.244010    -3.522381    -2.326131
H     6.712227    -4.333316    -2.572157
H    -4.051282    -3.061656    -4.937325
O    -4.202638    -2.948134    -5.902505
H    -4.748933    -2.154482    -5.959553
H     1.964856     2.178060     8.496527
O     2.632611     2.289906     7.810002
H     3.052192     1.418477     7.695018
H    -6.894264    -5.192342    -1.400512
O    -7.809210    -5.461167    -1.649380
H    -7.939608    -5.057545    -2.532348
H    -3.831099     5.256079     5.713222
O    -3.796030     6.025563     5.123970
H    -2.862198     6.318956     5.220937
H    -7.866735     0.098398    -1.968809
O    -7.375537     0.822323    -2.380045
H    -7.600393     0.812191    -3.334083
H     5.759378     0.025531     0.382260
O     5.542261     0.738840     1.014808
H     6.017157     0.492819     1.834663
H    -6.225320     3.311147     7.402706
O    -6.100505     2.792081     8.231336
H    -6.700819     2.031100     8.140152
H     2.287722    -8.070458    -0.820880
O     2.967660    -8.058176    -1.514279
H     2.743957    -8.771027    -2.129220
H    -2.714993    -3.949727    -6.187130
O    -1.962720    -4.516966    -5.953372
H    -1.688904    -4.226121    -5.055172
H    -5.647124     3.763165     5.317923
O    -6.297487     4.159575     5.933983
H    -6.133933     5.103623     5.921188
H    -1.000520    -7.106692    -3.151125
O    -0.529477    -6.438045    -2.620387
H     0.379241    -6.368419    -2.998261
H     4.440140     2.009102     5.170533
O     3.502824     2.257974     5.048054
H     3.111656     2.267955     5.926954
H     4.104922     4.653012     6.338844
O     4.205001     5.374386     5.713326
H     3.625959     5.142908     4.947770
H     2.761696     3.616085     3.956341
O     2.591476     4.557643     3.792022
H     2.471541     4.657234     2.824876
H     9.444398     0.110065    -1.008858
O     8.665917     0.316448    -0.478270
H     8.468126    -0.527527    -0.032141
H    -2.120745     5.315690     10.672736
O    -2.843437     4.687045     10.901364
H    -3.065166     4.863984     11.815777
H     7.980518    -3.012018     0.370741
O     8.403001    -2.167988     0.633236
H     8.331567    -2.168780     1.595067
H     5.318122     3.692472     3.675611
O     6.034974     3.969975     4.290557
H     5.629079     4.691100     4.805524
H    -4.226417     5.019269     9.799876
O    -4.857033     5.171627     9.076051
H    -5.469289     4.423317     9.070467
H    -6.989841    -3.466273    -3.488441
O    -7.609226    -4.077453    -3.939412
H    -7.086040    -4.519031    -4.640362
H     0.007990     6.122711     10.800349
O    -0.855525     6.455227     10.550913
H    -0.737072     6.886222     9.685198
H     2.616085     1.502348    -4.070070
O     3.494265     1.854159    -3.831342
H     3.811567     1.340313    -3.057443
H    -6.984164    -0.216889     7.220260
O    -7.493296     0.561540     7.499941
H    -8.113912     0.746141     6.793878
H    -2.734246    -9.866979    -0.825159
O    -2.669997    -8.925255    -0.984029
H    -3.576379    -8.558341    -0.745922
H    -10.039236     3.091291    -4.904083
O    -10.158154     2.173669    -4.624667
H    -10.376482     2.256945    -3.675453
H    -2.072806    -3.023609     4.627720
O    -2.948322    -3.463161     4.694386
H    -2.940123    -4.079914     3.937184
H    -0.179233    -7.980621     2.500248
O     0.645847    -7.771881     2.951367
H     1.365752    -8.067098     2.366222
H     6.693230    -2.383829     6.435836
O     7.146050    -3.091711     5.972681
H     6.516588    -3.826900     5.929746
H    -5.283985    -2.002219     6.948064
O    -5.958698    -1.503392     6.462699
H    -5.939482    -1.879179     5.552973
H     0.872637     3.043347    -7.085446
O     1.790353     2.712709    -7.140026
H     1.777851     1.965146    -7.765726
H    -3.960187     8.756805     6.692312
O    -3.954312     8.756030     5.734969
H    -4.079588     7.828999     5.465402
H    -2.033393     10.321975    -2.710702
O    -2.933955     10.505203    -3.014912
H    -2.859180     11.138830    -3.727798
H     9.406143    -4.067566     4.093488
O     9.126086    -4.745601     4.715958
H     8.692755    -4.273942     5.438211
H    -0.707888    -5.986941    -5.825373
O    -0.005750    -6.554436    -5.490711
H     0.830663    -6.092886    -5.705103
H     1.836801     8.279928     0.698433
O     1.538365     8.602580    -0.180290
H     2.355554     8.637861    -0.707304
H     3.533700     2.938193    -6.624255
O     4.359809     2.645988    -6.213539
H     4.112056     2.372742    -5.304846
H     3.753608     7.127328    -1.187381
O     3.959931     8.063756    -1.399462
H     4.332285     8.007545    -2.291512
H     4.431721     0.002940    -7.874677
O     4.807222     0.146981    -7.004253
H     4.625336     1.078639    -6.758870
H     6.067787     2.034884    -0.488783
O     6.642638     2.131861    -1.257913
H     7.428926     1.608072    -1.033647
H     6.696071    -8.429959    -1.570511
O     7.335091    -8.219202    -2.304442
H     7.701135    -9.053640    -2.592600
H    -5.275902    -5.775257    -5.406672
O    -5.891799    -5.102768    -5.722919
H    -5.339429    -4.334529    -5.956923
H     0.674721     7.170767     7.633596
O    -0.227781     7.198633     7.989989
H    -0.780919     7.214045     7.170672
H    -8.874262    -2.819678    -4.109831
O    -9.395055    -2.011137    -3.943417
H    -9.106352    -1.345721    -4.571784
H    -2.394902    -5.980037    -2.133741
O    -3.272435    -5.693774    -2.404458
H    -3.456820    -6.066926    -3.291401
H    -2.961375    -5.888116    -5.401269
O    -3.563131    -6.498237    -4.931753
H    -3.082043    -7.318813    -4.764248
H    -1.354712     3.738775    -6.960524
O    -0.815617     2.982532    -6.688878
H    -1.051261     2.197921    -7.239990
H    -0.165904     0.430230    -8.192770
O    -1.063028     0.665166    -7.912489
H    -1.240491     0.141588    -7.115009
H    -10.399999     4.067022    -2.740105
O    -10.469949     3.288095    -2.172643
H    -9.641793     3.260324    -1.661764
H     4.465302     4.168867     1.804302
O     4.416653     3.218984     2.071849
H     5.275467     2.869201     1.788613
H     6.512543     1.402543    -4.171320
O     6.208863     0.773557    -3.482390
H     6.231615     1.264566    -2.634758
H     9.645507    -2.221091    -0.875642
O     9.926382    -2.003853    -1.773192
H     9.128153    -1.666518    -2.221006
H     9.989476    -3.317236    -3.047036
O     9.724493    -3.969386    -3.722416
H     9.332582    -3.462067    -4.443967
H    -7.687015    -8.563402    -1.675298
O    -6.948292    -7.969578    -1.800879
H    -7.325213    -7.056212    -1.791445
H     4.189043     6.085809    -3.777121
O     4.850278     6.787023    -3.691583
H     5.685190     6.332299    -3.548430
H     0.121085    -8.160985    -5.199850
O     0.143990    -9.144109    -5.068894
H     0.297083    -9.506981    -5.941373
H    -2.317650    -8.664903    -2.708368
O    -2.081296    -8.400817    -3.617166
H    -1.433427    -9.018942    -3.974225
H     2.199219    -10.810326    -3.475845
O     2.154060    -9.855769    -3.450816
H     1.370636    -9.583655    -3.979357
H     6.863823     3.333407    -4.522560
O     6.925636     2.658588    -5.227011
H     6.133111     2.792467    -5.768801
H    -3.579320    -3.723041     7.729190
O    -3.691011    -2.934349     7.199911
H    -3.437404    -3.172565     6.281922
H    -0.607321    -3.350486    -6.706573
O     0.023466    -2.619565    -6.711903
H    -0.458320    -1.843958    -6.370443
H     0.625174     0.457761     8.778750
O     0.635594    -0.256362     8.137511
H    -0.286289    -0.545427     8.046103
H    -5.804977     7.380669    -4.239437
O    -6.306813     6.762903    -4.802653
H    -6.595464     6.031185    -4.213227
H    -4.251632     9.113952    -3.245020
O    -4.788585     8.318395    -3.140764
H    -4.382274     7.837472    -2.401566
H    -9.681810     5.812574    -4.647797
O    -10.216269     5.008144    -4.486581
H    -11.095654     5.209769    -4.808241
H     2.768766     6.513689     6.175736
O     1.809247     6.608121     6.274027
H     1.464407     5.695241     6.169243
H     4.818970     8.549970     0.131328
O     5.132830     8.550644     1.053522
H     5.534090     7.683274     1.185577
H     4.163834    -7.419784    -4.313615
O     3.407697    -7.704189    -4.858803
H     3.125499    -8.544971    -4.483744
H     0.378716     8.660202     4.267245
O     1.058398     8.016500     4.042205
H     1.280383     7.521893     4.856644
H     5.264081     4.193520    -3.108578
O     6.225206     4.160290    -3.054814
H     6.430159     3.580205    -2.302844
H    -2.590261    -1.545273     7.586851
O    -2.080273    -0.752691     7.810185
H    -2.707512    -0.126337     8.181825
H    -8.998649     7.951486    -4.143988
O    -8.933439     7.367763    -4.901263
H    -7.975945     7.203083    -5.033299
H     3.533488    -8.978469     1.115696
O     2.856205    -8.347209     1.364108
H     3.329928    -7.541801     1.645472
H     3.589662     8.177972     1.869569
O     2.794224     7.619943     1.979111
H     2.350162     7.849215     2.808082
N     7.271106     3.299960     1.707584
H     7.862646     2.546145     1.787190
H     7.274817     3.725300     2.577119
