18
Coordinates from ORCA-job grain_mol_opt.QMRegion
  H   -4.10259001691607     -3.03152974437084     -4.88391801964129
  O   -4.27819986642606     -2.91598347965490     -5.84639479296223
  H   -4.80359599489092     -2.09948707237356     -5.86766900638892
  H   -2.65307628122523     -3.86997133893890     -6.20759298604977
  O   -1.93164098126958     -4.46774337071728     -5.95206875806700
  H   -1.66329866115619     -4.16719742658707     -5.05273421663536
  H   -7.00271433885831     -3.40745967878754     -3.43643613686086
  O   -7.62214343222004     -4.02017817437035     -3.89774334580152
  H   -7.08972759140611     -4.44689353074712     -4.59540093925086
  H   -5.29928252235698     -5.76728580817563     -5.40172271277270
  O   -5.91781067640398     -5.14623838442220     -5.82407584328358
  H   -5.37618760810827     -4.33918100627557     -5.96013283544244
  H   -2.93883115856481     -5.94173108218793     -5.33120666485893
  O   -3.57197839378041     -6.53908752564258     -4.88665799782418
  H   -3.08220934707350     -7.34539885125318     -4.64493944040227
  O   -5.72033523831343     -6.39728074445190     -8.41967288543549
  H   -5.89010576818754     -5.97115047206523     -7.56056034169062
  H   -6.52233965881508     -6.23193825320121     -8.92268477297424
