27

H    -4.009295     5.736554    -2.433706
O    -4.342602     4.939700    -2.852205
H    -4.140929     4.965321    -3.823265
H    -0.359477     6.880984    -2.260822
O    -1.114080     7.289212    -2.769737
H    -1.888121     7.141258    -2.187205
H    -0.633807     4.506362    -4.045702
O    -1.436010     5.027061    -4.261038
H    -1.297246     5.877732    -3.806795
H    -5.093328     5.596293    -5.613083
O    -4.506829     4.828544    -5.520256
H    -3.717252     4.972827    -6.098497
H    -2.319312     6.247802    -6.940429
O    -2.215782     5.311642    -6.738141
H    -1.798976     5.284855    -5.829246
H    -1.938332     10.386662    -2.723051
O    -2.817679     10.612920    -3.077326
H    -2.631393     11.006438    -3.934349
H    -5.988114     7.303680    -4.243194
O    -6.452068     6.671923    -4.812860
H    -6.725500     5.929914    -4.206532
H    -3.944047     9.154423    -3.343449
O    -4.409137     8.298910    -3.449267
H    -4.112136     7.804509    -2.666686
N    -3.504491     7.908480    -6.211920
H    -3.705133     7.942162    -5.259562
H    -4.300997     8.244447    -6.633169
