57
Coordinates from ORCA-job grain_mol_opt.QMRegion
  H   0.30487016483155      2.96161764872775     -0.62655136758961
  O   0.84574316917466      2.36344708045465     -1.18670954158314
  H   1.78250339917754      2.46679008647684     -0.88609398124279
  H   0.18331324335569      5.67926201105097     -0.63726457687770
  O   0.71858206787697      6.33835841208661     -1.14429987554641
  H   0.88183317758299      7.12824232643944     -0.57411096342072
  H   -0.43031776800978      6.86576599495760     -2.14736412730182
  O   -1.12275462554995      7.28994478459143     -2.72320050631547
  H   -1.94114804854561      7.18599997608927     -2.18015783862752
  H   -1.12453822700142      4.26196371495248      0.59629752295216
  O   -0.72117319743457      4.31487702997246     -0.29203729904677
  H   -1.43007895035806      4.07633241159346     -0.92982711169761
  H   -0.94931749865169      4.50488947978752     -4.00892943747180
  O   -1.62667211538116      5.15899531729696     -4.25768684437998
  H   -1.40468892713275      5.97169553981723     -3.75345166079149
  H   0.80021507337096      3.26132552853973     -2.70633577626350
  O   0.67207505520840      3.61151310698743     -3.62030259826457
  H   0.69693009341112      2.81320641552533     -4.16250786686604
  H   -1.13088538455406      1.49352028050946     -3.91552528645232
  O   -1.75316292283727      2.14301127146013     -4.30334674210099
  H   -1.46797117489714      2.38660926993421     -5.20486022420975
  H   -0.58438071106744      8.84676304185951     -2.15201579471934
  O   -0.43556854824344      9.72676813885185     -1.73610279012277
  H   0.22305137181093      9.56813254854413     -1.03909689008340
  H   2.31169876306305      5.82829171395110     -1.07569768376212
  O   3.26899877638268      5.61513947664763     -1.01595004067520
  H   3.44943537251080      4.98781030576213     -1.75662225870003
  H   3.41272172381061      3.44257926548100     -3.43808329270391
  O   3.70075154025281      4.36408757165128     -3.24970889392721
  H   3.28590002752874      4.96087309365908     -3.90405978507121
  H   -1.81597594491792      6.26685392930655     -7.15078998034337
  O   -2.05127678586555      5.41465132813605     -6.77981503561704
  H   -1.77017578112801      5.41441722081071     -5.80815521193872
  H   2.58084371610519      1.44643327316488     -4.10547861950729
  O   3.44868354884198      1.82004395630383     -3.85549813102650
  H   3.77465422358518      1.29047361358492     -3.09744898859906
  H   0.82406823705847      2.95299182427072     -7.17074304778859
  O   1.74992356120430      2.62870219392775     -7.18315084267044
  H   1.74202627329764      1.84902433987225     -7.77749265048532
  H   1.94099408867899      8.30766651393810      0.75275347722441
  O   1.59791808339086      8.66128766426996     -0.10265027229798
  H   2.40394696744773      8.72270494249838     -0.65179368794282
  H   3.60278965526901      2.93814692868273     -6.69487490333315
  O   4.41049297901868      2.62644480942975     -6.26318134037458
  H   4.12016207956084      2.32489117119105     -5.37654449313793
  H   3.85357846083837      7.18598212027961     -1.29889499136783
  O   4.03870820166873      8.14966353251038     -1.43350741307850
  H   4.69191118619786      8.14406447987502     -2.14726194585579
  H   -1.41717799383407      3.73532551709503     -7.10754754437338
  O   -0.92761993008667      2.94887240689311     -6.79245944959904
  H   -1.13600583242851      2.17738080698695     -7.37058868670599
  H   6.41393793342747      7.26932438067018     -4.07404688890779
  O   5.76986208607647      6.92115341233207     -3.45303826643391
  H   6.06893134439788      6.01043352755663     -3.27555149937032
  O   1.88896973944185      5.89254910691176     -4.67225393697237
  H   1.34442002815599      5.16390921078091     -4.31534905421478
  H   1.72758591987589      6.62676152741369     -4.07093295120265
