603

H     0.214695     3.037336    -0.679294
O     0.738409     2.368788    -1.171402
H     1.676645     2.497373    -0.895677
H    -0.071876    -1.303657     3.146371
O     0.321404    -0.603399     2.602973
H    -0.156014     0.210307     2.836149
H    -2.385000     2.418166    -0.542778
O    -2.176351     1.946576     0.281136
H    -2.192176     0.999023     0.055316
H    -4.656058     0.553141     2.168585
O    -4.973622    -0.380160     2.179968
H    -4.467289    -0.857387     1.514443
H     0.073091    -0.303656     0.947986
O    -0.122038    -0.066404     0.020722
H     0.217621     0.830408    -0.098145
H    -0.152305    -3.574634     3.771373
O    -0.431891    -2.744693     4.191648
H     0.212605    -2.574781     4.895128
H    -4.876887     2.537572     1.317811
O    -4.239095     2.126814     1.933522
H    -3.395109     2.109620     1.422817
H    -3.230826     3.907799    -2.219312
O    -2.494768     3.309275    -1.987302
H    -2.133921     3.023128    -2.846515
H    -0.116788    -3.799550     0.496337
O     0.222765    -2.982406     0.915107
H    -0.564833    -2.495884     1.226276
H    -2.372284    -1.533925     2.459609
O    -2.181926    -1.999401     1.618589
H    -2.438288    -1.411325     0.889198
H     2.085578    -1.437393    -1.121394
O     2.315555    -1.691809    -0.204051
H     1.525261    -2.118863     0.178150
H    -1.382793     1.829552     1.906870
O    -1.476932     1.430786     2.782136
H    -1.463517     2.142339     3.448030
H     0.221768    -2.696255    -1.575101
O    -0.533185    -2.083986    -1.631669
H    -0.355022    -1.358401    -0.996323
H    -3.425937    -2.918092    -0.404779
O    -2.708130    -3.409679    -0.825301
H    -1.996997    -2.779029    -1.040345
H     2.777223     0.130648     2.936111
O     2.874230    -0.053109     3.897768
H     2.965047     0.839324     4.303673
H    -3.514550     6.388307    -0.548770
O    -3.274325     7.051167    -1.247905
H    -3.133055     7.895982    -0.776840
H     3.910662     0.586779     1.191209
O     2.959816     0.405058     1.304935
H     2.723631    -0.346543     0.724244
H    -5.766615     0.852751    -1.619911
O    -4.856172     1.179457    -1.492133
H    -4.967614     2.007712    -0.980141
H    -1.203381     5.401698     2.208341
O    -1.828198     4.654660     2.089770
H    -1.908071     4.235520     2.951856
H     3.504673     2.766952     0.431491
O     3.258423     2.724620    -0.508155
H     3.591919     1.882450    -0.858627
H     1.505579    -4.690334    -2.255583
O     1.568411    -3.913011    -1.682391
H     2.364455    -3.452062    -2.030356
H    -0.905546    -0.076530    -2.551997
O    -0.270696     0.575444    -2.875187
H    -0.010766     1.157974    -2.138194
H     1.708390    -4.680422    -0.183712
O     1.813720    -5.318366     0.558255
H     1.350523    -6.129051     0.260668
H    -1.210542    -3.256968    -2.889444
O    -1.035401    -3.939293    -3.550975
H    -0.910904    -4.786983    -3.082609
H    -2.778451     3.311716     4.697679
O    -1.797152     3.308344     4.665686
H    -1.506336     2.905870     5.502296
H     0.966145     5.036345     4.078639
O     0.020041     5.268759     4.129152
H    -0.452711     4.465489     4.385240
H    -1.720950    -4.643781    -0.383360
O    -0.956633    -5.185466    -0.097911
H    -1.305475    -5.872165     0.479791
H    -3.898922     5.842146    -2.605570
O    -4.249082     5.008496    -2.937197
H    -4.091766     4.975088    -3.905111
H    -2.425498    -3.684128     1.923865
O    -2.445072    -4.588998     2.298012
H    -1.505749    -4.827365     2.441035
H    -4.679776    -2.969019    -2.915647
O    -3.826901    -3.202237    -3.320824
H    -3.497086    -3.995919    -2.854711
H     0.340775     1.378413     4.613072
O     0.847919     2.138451     4.280980
H     0.895487     2.796908     4.988434
H    -4.643110    -5.161040    -1.589356
O    -5.346114    -4.807699    -1.017090
H    -5.135139    -5.162712    -0.132599
H     2.343476    -6.474253    -4.044257
O     2.004431    -6.145460    -3.191523
H     2.436885    -6.719983    -2.527468
H     0.485047    -3.369360    -4.012154
O     1.287950    -3.001921    -4.434952
H     0.969723    -2.629581    -5.283026
H     1.967928    -1.750857     2.980587
O     2.123059    -2.681617     2.762514
H     1.438363    -2.894153     2.094044
H    -2.998727    -1.799272    -3.222074
O    -2.575424    -0.913246    -3.157851
H    -3.231023    -0.266153    -3.474712
H    -3.179999     4.981966     1.073731
O    -3.960832     5.355739     0.618017
H    -4.377064     5.913471     1.323688
H     0.882190     2.256632     2.590996
O     0.984852     2.252397     1.619965
H     1.712315     1.629559     1.456810
H     0.205152     5.663526    -0.756503
O     0.728238     6.325351    -1.263716
H     0.869333     7.124921    -0.707331
H     0.351305     7.039473     2.593966
O    -0.009470     6.659541     1.775732
H     0.655068     5.989278     1.514834
H    -2.476363     0.219184     3.332002
O    -2.699384    -0.595515     3.835374
H    -1.940308    -0.635578     4.458900
H    -0.895842     0.554625     6.019855
O    -0.620591     0.035539     5.245568
H     0.092214    -0.568285     5.533244
H     0.714354    -4.990705     1.973211
O     0.170086    -5.100872     2.776196
H     0.313997    -6.021689     3.048032
H    -2.112789    -8.081938     0.432236
O    -1.791567    -7.594784     1.218369
H    -2.578477    -7.283703     1.673477
H    -0.360962     6.872168    -2.324311
O    -1.106316     7.293014    -2.824163
H    -1.897400     7.166286    -2.262320
H    -1.102256     4.315513     0.571477
O    -0.727485     4.376700    -0.323833
H    -1.433077     4.136343    -0.957870
H    -4.405076     2.752081     3.496322
O    -4.405511     2.921487     4.461048
H    -4.490046     2.038113     4.869154
H     2.024339    -3.581463     4.241130
O     1.958741    -4.054777     5.093593
H     2.464498    -3.518842     5.725959
H     4.695246    -3.192395     0.841655
O     4.536724    -3.115880    -0.125160
H     3.678308    -2.637888    -0.209661
H    -2.709437    -0.740010    -1.362344
O    -3.038981    -0.470977    -0.488683
H    -3.838537     0.055942    -0.696535
H    -1.599765    -0.749784    -4.635290
O    -1.092701    -0.533394    -5.439074
H    -0.380415     0.062465    -5.154052
H     1.811432    -1.706792    -3.378526
O     1.902880    -0.960205    -2.755478
H     1.125711    -0.382693    -2.886990
H     3.666983    -3.120822     2.551153
O     4.626018    -3.350276     2.479342
H     4.680177    -4.310455     2.605924
H     3.427494    -6.120577     3.120581
O     3.784980    -5.919365     2.221107
H     3.048838    -5.572426     1.677300
H    -3.324218     1.622640    -4.185879
O    -4.169419     1.150827    -3.998489
H    -4.389793     1.296424    -3.042283
H    -5.070143     4.155710     0.055879
O    -5.508908     3.289908    -0.049559
H    -6.438765     3.410105    -0.332657
H     6.747010    -1.178875    -1.353885
O     5.973209    -1.029595    -0.804183
H     5.553718    -1.897356    -0.608014
H     4.607551    -3.162972    -2.468214
O     3.740801    -2.991121    -2.886401
H     3.745862    -3.609993    -3.642391
H     4.432775    -2.295659     5.624520
O     4.087952    -2.761928     6.416404
H     4.422886    -3.666949     6.334634
H    -0.751131     6.339497     5.075326
O    -1.348679     6.915052     5.612749
H    -1.360910     7.792526     5.171979
H     4.712030    -0.131721    -1.461044
O     3.945537     0.411115    -1.725567
H     3.253343    -0.189021    -2.056658
H    -0.720649     4.534338    -4.038262
O    -1.504046     5.076138    -4.246344
H    -1.353116     5.943286    -3.824857
H     0.677134     3.211420    -2.657846
O     0.686451     3.588980    -3.565833
H     0.734289     2.826648    -4.152667
H    -5.379515    -5.186708     1.774397
O    -4.682460    -5.781355     1.419659
H    -3.842258    -5.366303     1.692658
H     7.899108    -1.685330    -4.023554
O     7.639130    -1.372972    -3.124404
H     7.153069    -0.528555    -3.281107
H     3.719806    -5.065161    -5.291014
O     4.481373    -4.691599    -4.808933
H     4.864865    -5.402784    -4.262436
H    -3.784144     0.021366     4.922931
O    -4.385811     0.485181     5.554761
H    -5.046963    -0.172744     5.844805
H     3.472965    -5.938426    -0.521767
O     4.345894    -5.691173    -0.838957
H     4.422753    -4.729156    -0.693326
H     5.016944    -0.329611    -4.157385
O     4.480763    -1.039813    -4.548606
H     4.155102    -1.623950    -3.831124
H    -1.152625     1.582982    -3.940727
O    -1.804664     2.200749    -4.328255
H    -1.443623     2.538411    -5.171035
H     4.896513    -6.317174    -2.315671
O     5.230891    -6.641282    -3.181086
H     6.048209    -7.122967    -2.993207
H     8.753637    -5.088838    -2.909806
O     8.060652    -5.506608    -2.353570
H     8.095329    -6.463914    -2.455948
H     2.349654     4.723930     0.456181
O     1.769129     4.705249     1.226408
H     1.410932     3.785211     1.302318
H    -4.415230    -2.630065     4.216124
O    -5.308665    -2.290153     4.012002
H    -5.170304    -1.508378     3.437702
H    -5.840323    -3.188013     1.298928
O    -6.304692    -3.745497     1.965742
H    -6.117746    -3.310868     2.817096
H     1.684473     3.467551     6.864805
O     1.062729     3.983586     6.330049
H     0.278820     4.136896     6.900331
H     5.002646    -2.169462     3.619890
O     5.022136    -1.451877     4.284697
H     4.210859    -0.894989     4.126993
H     2.388284    -5.576533     4.834146
O     2.768235    -6.460402     4.573928
H     2.023158    -7.041411     4.398356
H     2.278903    -4.506237    -6.793991
O     2.106473    -4.995061    -5.979403
H     1.841902    -4.304450    -5.323445
H     6.448379    -4.101046    -0.498457
O     7.200570    -4.504808    -0.034221
H     7.709180    -4.927133    -0.754311
H    -1.728345     4.490138     7.697369
O    -0.830179     4.587500     8.084569
H    -0.648867     5.546587     8.110093
H    -5.094341     5.706584    -5.606728
O    -4.487869     4.942255    -5.626240
H    -3.728495     5.157098    -6.189880
H     3.308482    -2.520938    -8.437500
O     3.216742    -3.049830    -7.634702
H     4.092705    -3.027425    -7.203810
H    -0.641361     8.835232    -2.276793
O    -0.519310     9.662989    -1.756545
H     0.242117     9.487994    -1.178930
H     2.065427    -0.912321     5.210844
O     1.491282    -1.438625     5.796566
H     1.583402    -1.094081     6.694274
H     5.224518    -2.016638    -5.689416
O     5.570351    -2.782695    -6.212269
H     5.297231    -3.572936    -5.694649
H     5.693135    -5.216572     4.688557
O     5.169387    -5.132022     5.514311
H     4.447803    -5.763681     5.427012
H    -3.977844     1.148256     6.996051
O    -3.787164     1.623243     7.840616
H    -4.663578     2.009182     8.100005
H    -1.835480     9.622104    -0.746000
O    -2.696896     9.495709    -0.273129
H    -3.306967     10.124672    -0.661992
H    -5.930292     4.701120    -2.951228
O    -6.838627     4.581891    -3.296418
H    -6.747453     3.880639    -3.974322
H     0.102538    -7.057896    -1.152827
O     0.565335    -7.494843    -0.404986
H    -0.114899    -7.689851     0.242733
H    -7.622087     3.802821    -1.989542
O    -7.885263     3.215282    -1.250497
H    -7.741949     2.306896    -1.590475
H     3.969056    -0.894799     6.989387
O     3.978046     0.069349     6.980987
H     4.791334     0.359330     6.551296
H     2.273174     5.801906    -1.174705
O     3.208232     5.508214    -1.058662
H     3.386202     4.969188    -1.852273
H     6.555841    -5.928399     0.675702
O     6.185749    -6.665191     1.207716
H     5.281083    -6.387725     1.433556
H    -3.871958     4.730969     7.772883
O    -3.304246     4.268346     7.114671
H    -3.498397     3.324964     7.224048
H     5.767948    -7.943520     0.138471
O     5.481082    -8.629927    -0.500319
H     4.652724    -8.303753    -0.895646
H    -0.562097     2.041921     7.689783
O    -1.193952     1.977912     6.953454
H    -2.063266     1.836652     7.348317
H    -6.375282    -0.112654     1.045642
O    -6.693868    -0.196156     0.132134
H    -7.612981    -0.465738     0.148593
H    -5.363157    -3.054760    -0.605108
O    -5.111313    -2.353135     0.021396
H    -5.680935    -1.579858    -0.166006
H     4.329181     5.581196     0.328858
O     4.661354     5.680625     1.234854
H     3.966425     6.191237     1.686132
H    -9.031259    -1.732504    -2.276033
O    -8.484068    -1.532272    -1.489246
H    -8.613386    -2.268949    -0.851979
H    -5.502305     3.486007    -5.538799
O    -6.020415     2.773142    -5.128306
H    -5.355266     2.188280    -4.711887
H     3.197213    -0.874970    -5.657129
O     2.345020    -0.990141    -6.131632
H     2.429518    -1.843738    -6.597049
H     8.134509    -1.343667    -6.019017
O     8.141303    -2.208279    -5.563604
H     7.285603    -2.607694    -5.815853
H     7.643247     0.996472    -6.298995
O     7.453987     0.148687    -6.713286
H     6.472717     0.100009    -6.750263
H    -7.855055    -3.683055     0.908290
O    -8.531876    -3.575312     0.222458
H    -8.433125    -4.334635    -0.379215
H    -2.396379     8.743345     1.290727
O    -2.247226     8.154209     2.043676
H    -1.476865     7.601008     1.821871
H    -4.438016     6.441691     3.489154
O    -4.606537     6.868131     2.632542
H    -3.842729     7.454006     2.494650
H     3.418248     3.452912    -3.573026
O     3.265972     4.421848    -3.478155
H     2.301500     4.488103    -3.588559
H    -6.101137    -1.593227    -3.459094
O    -6.185295    -2.173374    -2.676122
H    -6.970110    -1.866532    -2.168236
H     6.468631     1.048695     4.748573
O     6.073487     1.586926     5.451270
H     6.262133     2.505849     5.161301
H     1.340573     1.613133    -5.800481
O     1.162581     1.034943    -5.021055
H     1.576199     0.188097    -5.266754
H    -2.498732     2.963134     10.477428
O    -2.286499     2.055603     10.203872
H    -2.882889     1.856841     9.470190
H     7.630680    -0.498554     3.093635
O     6.880475     0.077268     3.261082
H     6.187262    -0.522858     3.639080
H    -5.652872    -8.044706    -0.721599
O    -4.918994    -8.114087    -0.074139
H    -4.923542    -7.297360     0.448729
H    -5.160260    -0.105683    -4.727863
O    -5.775857    -0.817159    -4.972472
H    -6.614252    -0.375343    -5.169672
H     2.032758    -0.182865    -7.542810
O     1.917964     0.246625    -8.423729
H     2.522251    -0.259146    -8.988252
H     4.898765    -1.381563    -9.298365
O     3.973259    -1.155484    -9.585612
H     3.958191    -1.268783    -10.535186
H     7.563711    -2.572126     4.208320
O     7.712382    -2.607788     3.249096
H     7.219081    -3.398208     2.975920
H     6.721981    -5.895012     2.689234
O     6.782457    -5.220187     3.390760
H     7.657494    -5.305753     3.810391
H    -1.813955     8.952447     3.495979
O    -1.567895     9.256173     4.395114
H    -2.417517     9.388999     4.848921
H    -7.370358     1.582121    -5.267471
O    -7.945634     0.837680    -5.024411
H    -8.847468     1.237644    -4.949582
H     6.948279    -1.074101    -8.398508
O     6.363755    -1.793044    -8.662595
H     6.137820    -2.245227    -7.831234
H    -1.649577     6.241224    -7.036001
O    -2.053228     5.421735    -6.753477
H    -1.802780     5.295590    -5.790646
H    -0.005694     3.310827     9.021819
O     0.190349     2.390762     9.276647
H    -0.609085     2.126738     9.781436
H     6.769028    -2.775581    -2.697969
O     6.237120    -3.519966    -2.359475
H     6.706514    -4.330741    -2.604494
H    -4.060646    -3.061373    -4.957465
O    -4.211725    -2.945759    -5.922563
H    -4.762378    -2.154852    -5.977001
H     1.974153     2.183012     8.466879
O     2.639262     2.295462     7.778025
H     3.061329     1.425119     7.662977
H    -6.898911    -5.190558    -1.415809
O    -7.814073    -5.459640    -1.663327
H    -7.946102    -5.056375    -2.546116
H    -3.826351     5.260899     5.689918
O    -3.792170     6.029578     5.099539
H    -2.858286     6.323635     5.195623
H    -7.872400     0.100042    -1.984870
O    -7.381010     0.823171    -2.397297
H    -7.608166     0.813401    -3.350769
H     5.845968     0.132612     0.419364
O     5.623043     0.853787     1.040200
H     6.131670     0.658089     1.854033
H    -6.218558     3.316267     7.383119
O    -6.092487     2.797322     8.211614
H    -6.693063     2.036445     8.121724
H     2.285025    -8.068335    -0.847192
O     2.962592    -8.055161    -1.542870
H     2.738700    -8.769214    -2.156377
H    -2.726267    -3.949591    -6.208274
O    -1.971036    -4.513893    -5.977195
H    -1.698094    -4.225480    -5.077877
H    -5.642922     3.767733     5.297560
O    -6.292973     4.164099     5.913854
H    -6.128966     5.108084     5.901366
H    -1.007262    -7.105515    -3.173520
O    -0.535745    -6.435558    -2.644718
H     0.372884    -6.367199    -3.023051
H     4.444837     2.017007     5.135340
O     3.503509     2.256668     5.013536
H     3.117605     2.272872     5.894728
H     4.108860     4.657175     6.308670
O     4.191561     5.387556     5.691117
H     3.625071     5.148011     4.919080
H     2.768281     3.619768     3.927075
O     2.591552     4.560066     3.761455
H     2.473821     4.659439     2.794882
H     9.405052     0.212822    -1.056498
O     8.597586     0.375345    -0.565232
H     8.420751    -0.443395    -0.072353
H    -2.109429     5.321881     10.646998
O    -2.832123     4.693477     10.876651
H    -3.052266     4.870522     11.791438
H     7.979810    -3.008041     0.337118
O     8.400903    -2.161737     0.593386
H     8.333320    -2.157224     1.555594
H     5.374984     3.666186     3.534277
O     6.030111     3.930560     4.201991
H     5.616990     4.648597     4.703406
H    -4.216043     5.025666     9.776974
O    -4.847716     5.177260     9.053845
H    -5.459943     4.428951     9.049886
H    -6.997328    -3.465398    -3.504209
O    -7.617224    -4.076532    -3.954405
H    -7.095274    -4.518610    -4.655750
H     0.019273     6.129143     10.771650
O    -0.844737     6.461048     10.523065
H    -0.727224     6.892069     9.657204
H     2.603102     1.502323    -4.102824
O     3.481728     1.853276    -3.864736
H     3.801510     1.339635    -3.092985
H    -6.977597    -0.212059     7.203014
O    -7.486277     0.566542     7.482856
H    -8.107990     0.750800     6.777682
H    -2.737588    -9.864751    -0.844808
O    -2.673855    -8.923096    -1.004410
H    -3.579957    -8.556335    -0.764773
H    -10.048772     3.091603    -4.918905
O    -10.166469     2.174007    -4.638758
H    -10.384235     2.257954    -3.689424
H    -2.069096    -3.019277     4.604900
O    -2.944378    -3.458972     4.672624
H    -2.937271    -4.076403     3.916113
H    -0.178327    -7.977592     2.476785
O     0.647407    -7.767734     2.926124
H     1.366591    -8.063807     2.340514
H     6.701905    -2.376947     6.400003
O     7.151531    -3.086867     5.936858
H     6.521104    -3.821232     5.897211
H    -5.277518    -1.997425     6.929350
O    -5.952699    -1.498799     6.444415
H    -5.935063    -1.875306     5.535099
H     0.896063     3.124668    -7.125243
O     1.781274     2.713537    -7.057514
H     1.853578     2.109926    -7.809194
H    -3.953731     8.762216     6.667416
O    -3.950097     8.760562     5.710054
H    -4.075327     7.833245     5.441584
H    -2.040077     10.323732    -2.739013
O    -2.941376     10.506243    -3.041293
H    -2.868456     11.139466    -3.754761
H     9.409792    -4.062912     4.055886
O     9.128281    -4.741296     4.677387
H     8.697942    -4.269104     5.401150
H    -0.718498    -5.986303    -5.849419
O    -0.016352    -6.553699    -5.514790
H     0.820180    -6.093165    -5.730232
H     1.838039     8.280741     0.669366
O     1.536307     8.603115    -0.208474
H     2.351812     8.641114    -0.737724
H     3.528083     2.945310    -6.652844
O     4.353572     2.645464    -6.245348
H     4.103699     2.372833    -5.337588
H     3.748483     7.130399    -1.222048
O     3.955183     8.066143    -1.434280
H     4.325627     8.010576    -2.327152
H     4.424467     0.007648    -7.908243
O     4.794007     0.148439    -7.035237
H     4.615401     1.081271    -6.790150
H     6.041531     1.936529    -0.466865
O     6.607950     2.128978    -1.227990
H     7.432178     1.649413    -1.032555
H     6.691368    -8.427736    -1.603545
O     7.328414    -8.216978    -2.339157
H     7.696125    -9.051126    -2.626029
H    -5.285804    -5.775192    -5.424171
O    -5.901558    -5.102419    -5.740057
H    -5.349499    -4.334632    -5.975354
H     0.681333     7.175898     7.603401
O    -0.220843     7.203596     7.961302
H    -0.774859     7.219204     7.142813
H    -8.882973    -2.818798    -4.123642
O    -9.403012    -2.009998    -3.956522
H    -9.115749    -1.344913    -4.585869
H    -2.400596    -5.978825    -2.154419
O    -3.277686    -5.691209    -2.425136
H    -3.463831    -6.066159    -3.310834
H    -2.970117    -5.888753    -5.422368
O    -3.571709    -6.497540    -4.951619
H    -3.091247    -7.318465    -4.783581
H    -1.417790     3.807049    -6.947557
O    -0.853707     3.057058    -6.691856
H    -1.101991     2.266626    -7.218680
H    -0.306150     0.247734    -8.083321
O    -1.168737     0.597883    -7.822870
H    -1.357385     0.135316    -6.979994
H    -10.406843     4.068263    -2.754394
O    -10.475496     3.289011    -2.187185
H    -9.647249     3.262228    -1.676505
H     4.588041     4.083861     1.727895
O     4.378973     3.162608     2.005214
H     5.095292     2.586821     1.724922
H     6.502776     1.403629    -4.210795
O     6.197585     0.778596    -3.518286
H     6.227567     1.273320    -2.673957
H     9.642382    -2.224650    -0.916718
O     9.920494    -2.010425    -1.816089
H     9.121296    -1.670277    -2.260437
H     9.982027    -3.318555    -3.085869
O     9.715654    -3.969872    -3.761817
H     9.323933    -3.461396    -4.482502
H    -7.691247    -8.562185    -1.688420
O    -6.953021    -7.968021    -1.815434
H    -7.330377    -7.054884    -1.805377
H     4.179736     6.088658    -3.813869
O     4.841228     6.788977    -3.725045
H     5.677081     6.334196    -3.588472
H     0.111380    -8.160844    -5.223417
O     0.134303    -9.143682    -5.092030
H     0.286405    -9.507284    -5.964380
H    -2.324226    -8.663432    -2.728751
O    -2.088447    -8.399069    -3.637705
H    -1.441832    -9.018029    -3.995631
H     2.193013    -10.808768    -3.501077
O     2.147451    -9.854189    -3.476935
H     1.362785    -9.582980    -4.003930
H     6.855760     3.335818    -4.563439
O     6.914480     2.657397    -5.264001
H     6.122328     2.792472    -5.806518
H    -3.571509    -3.717710     7.709048
O    -3.684599    -2.929648     7.179125
H    -3.431706    -3.168259     6.261181
H    -0.617370    -3.350204    -6.730318
O     0.009006    -2.615225    -6.741750
H    -0.473607    -1.843939    -6.391855
H     0.635032     0.462894     8.750541
O     0.643218    -0.251739     8.109778
H    -0.279087    -0.539862     8.020380
H    -5.813230     7.381921    -4.261564
O    -6.315821     6.763444    -4.823369
H    -6.604201     6.032824    -4.232778
H    -4.259263     9.115116    -3.269820
O    -4.795744     8.319400    -3.164066
H    -4.388272     7.839419    -2.424983
H    -9.691214     5.812987    -4.663407
O    -10.225264     5.008342    -4.501610
H    -11.105181     5.210188    -4.821703
H     2.769924     6.517983     6.145618
O     1.809725     6.614855     6.242024
H     1.465834     5.701804     6.138314
H     4.816781     8.552107     0.094312
O     5.132610     8.552165     1.015828
H     5.539024     7.687642     1.146766
H     4.155562    -7.418733    -4.343200
O     3.398077    -7.702498    -4.886963
H     3.116942    -8.543738    -4.512054
H     0.382817     8.664676     4.236572
O     1.060609     8.019809     4.009364
H     1.285410     7.526478     4.824171
H     5.252110     4.198204    -3.149160
O     6.213448     4.166403    -3.095227
H     6.420600     3.585025    -2.346915
H    -2.583608    -1.540181     7.564399
O    -2.073189    -0.747358     7.785626
H    -2.699183    -0.120942     8.159242
H    -9.007015     7.952810    -4.161891
O    -8.943123     7.367558    -4.918090
H    -7.985851     7.203720    -5.052339
H     3.532417    -8.975691     1.088374
O     2.855443    -8.343481     1.335245
H     3.329819    -7.538698     1.617293
H     3.594251     8.176443     1.837049
O     2.803498     7.612966     1.947973
H     2.355791     7.848808     2.773245
N     0.207344     2.364840    -9.982529
H    -0.668768     2.004823    -9.807081
H     0.793203     1.616562    -9.818484
