18
Coordinates from ORCA-job grain_mol_opt.QMRegion
  H   -1.80272701075246      9.64264612444784     -0.61017105090055
  O   -2.58659660305413      9.47471159761972     -0.03713741362824
  H   -2.66242740018005     10.23262313573045      0.56974974220248
  H   -2.36495355942268      8.38763994253930      1.20202461419086
  O   -2.31665723751752      7.77487499188075      1.97793764661760
  H   -1.47688486810346      7.29110411377766      1.84112552716806
  H   -4.58602108718940      6.25614300063015      3.55153675864965
  O   -4.79807835085213      6.75406129478273      2.74505854452045
  H   -3.96036156521555      7.22155923929751      2.56530251239307
  H   -2.06478562808145      8.65077247918111      3.36843263190435
  O   -1.88940983433958      9.20766369337733      4.17488839790422
  H   -2.71484570272029      9.14869495984608      4.70034883584608
  H   -4.05577303460462      8.70733916869940      6.63460237303116
  O   -4.21381020316247      8.64984698632753      5.68682881213358
  H   -4.23544798746208      7.68740279067668      5.50980423404466
  O   -2.53361608783358     11.22896820433253      2.16262817052669
  H   -2.25875611239955     10.67110613851811      2.91768389569152
  H   -3.35775588191898     11.63357468968253      2.44754753424619
