603

H     0.188287     3.030072    -0.668550
O     0.710025     2.358443    -1.158395
H     1.648476     2.484012    -0.882198
H    -0.121529    -1.293464     3.158237
O     0.283717    -0.595607     2.619437
H    -0.193975     0.219046     2.847791
H    -2.413905     2.420566    -0.533244
O    -2.208665     1.949626     0.291963
H    -2.227511     1.001782     0.066999
H    -4.695775     0.568733     2.179030
O    -5.012734    -0.364927     2.195766
H    -4.513235    -0.842701     1.525361
H     0.034170    -0.305728     0.965053
O    -0.161870    -0.069921     0.037508
H     0.182204     0.824732    -0.084275
H    -0.199710    -3.432884     3.750101
O    -0.526539    -2.645847     4.214271
H     0.155239    -2.428725     4.872264
H    -4.908322     2.552483     1.323718
O    -4.272835     2.139933     1.940823
H    -3.428434     2.119404     1.430613
H    -3.252447     3.908941    -2.214464
O    -2.518256     3.309078    -1.979967
H    -2.157983     3.018744    -2.838105
H    -0.165086    -3.802425     0.525678
O     0.174784    -2.981789     0.938000
H    -0.613030    -2.493791     1.244024
H    -2.420778    -1.519225     2.473635
O    -2.230141    -1.989504     1.636001
H    -2.483771    -1.405069     0.902594
H     2.043963    -1.453533    -1.097791
O     2.270893    -1.705412    -0.178838
H     1.477946    -2.130219     0.201553
H    -1.418790     1.831709     1.918647
O    -1.515043     1.435751     2.795109
H    -1.499650     2.149623     3.458501
H     0.174999    -2.706381    -1.552383
O    -0.577801    -2.091410    -1.609992
H    -0.396871    -1.364724    -0.977021
H    -3.476726    -2.909760    -0.388205
O    -2.758127    -3.406503    -0.800783
H    -2.044831    -2.779872    -1.020362
H     2.734522     0.120115     2.957349
O     2.829272    -0.061757     3.919941
H     2.924594     0.831674     4.323048
H    -3.528862     6.394583    -0.550104
O    -3.285113     7.055181    -1.250207
H    -3.141602     7.900408    -0.780634
H     3.872458     0.569581     1.212162
O     2.921296     0.390115     1.327115
H     2.682492    -0.359846     0.744905
H    -5.800079     0.865008    -1.612719
O    -4.888714     1.188238    -1.482396
H    -4.998250     2.018082    -0.972848
H    -1.224807     5.405779     2.211924
O    -1.852077     4.660590     2.094577
H    -1.934728     4.244152     2.957639
H     3.476165     2.749244     0.446958
O     3.230588     2.706034    -0.492737
H     3.561211     1.861959    -0.841585
H     1.451486    -4.706263    -2.225005
O     1.517851    -3.928380    -1.652816
H     2.315149    -3.471240    -2.002804
H    -0.941324    -0.084312    -2.538298
O    -0.303272     0.565101    -2.860945
H    -0.043030     1.147381    -2.123994
H     1.650922    -4.694695    -0.151569
O     1.752159    -5.331400     0.592380
H     1.287914    -6.142082     0.294330
H    -1.258207    -3.264693    -2.866303
O    -1.084859    -3.949102    -3.525906
H    -0.963805    -4.796529    -3.055959
H    -2.810523     3.327451     4.704073
O    -1.829175     3.319137     4.673346
H    -1.541180     2.918828     5.511867
H     0.941239     5.036608     4.085723
O    -0.004087     5.272413     4.134784
H    -0.480104     4.471509     4.392011
H    -1.775382    -4.645351    -0.356346
O    -1.012664    -5.184902    -0.064601
H    -1.364473    -5.876088     0.506655
H    -3.912765     5.845458    -2.605895
O    -4.265660     5.012201    -2.935500
H    -4.107990     4.975500    -3.903224
H    -2.491788    -3.610272     1.880252
O    -2.536741    -4.496640     2.304251
H    -1.608763    -4.815823     2.331370
H    -4.725804    -2.964195    -2.897293
O    -3.872733    -3.200273    -3.300107
H    -3.546843    -3.995591    -2.833843
H     0.300668     1.383549     4.627515
O     0.812592     2.139635     4.295022
H     0.861412     2.800188     5.000514
H    -4.699408    -5.152365    -1.566890
O    -5.401080    -4.794157    -0.995810
H    -5.192581    -5.149906    -0.110803
H     2.285127    -6.496711    -4.009623
O     1.946957    -6.164824    -3.157792
H     2.375477    -6.740852    -2.492324
H     0.438466    -3.386220    -3.986323
O     1.243978    -3.022384    -4.406969
H     0.928833    -2.651327    -5.257286
H     1.936242    -1.723225     2.921356
O     2.060561    -2.674899     2.790128
H     1.421099    -2.896203     2.081746
H    -3.039569    -1.800564    -3.204058
O    -2.614323    -0.915508    -3.137931
H    -3.265814    -0.267889    -3.461652
H    -3.201475     4.990808     1.075879
O    -3.980318     5.366509     0.618465
H    -4.395489     5.927213     1.322365
H     0.849512     2.254386     2.604183
O     0.952830     2.247092     1.633396
H     1.678064     1.621035     1.472330
H     0.188212     5.655661    -0.751783
O     0.714352     6.314585    -1.259718
H     0.857833     7.114693    -0.704737
H     0.335537     7.038637     2.596013
O    -0.025678     6.658017     1.778290
H     0.636815     5.984893     1.519571
H    -2.521204     0.227530     3.345344
O    -2.742486    -0.585614     3.852694
H    -1.983275    -0.616195     4.477419
H    -0.941721     0.570491     6.034618
O    -0.668636     0.044318     5.264014
H     0.044793    -0.555893     5.555326
H     0.683102    -5.098772     1.901137
O     0.127864    -5.094329     2.709074
H     0.236462    -6.006910     3.037363
H    -2.183864    -8.077044     0.466065
O    -1.859137    -7.582566     1.245259
H    -2.642402    -7.280155     1.711943
H    -0.371507     6.862810    -2.322481
O    -1.114634     7.285184    -2.824509
H    -1.906925     7.162775    -2.263290
H    -1.125792     4.315575     0.577606
O    -0.749616     4.373735    -0.317258
H    -1.455128     4.134040    -0.951800
H    -4.438042     2.770974     3.501523
O    -4.438421     2.942589     4.465915
H    -4.527686     2.060847     4.876120
H     1.989467    -3.608820     4.334572
O     1.968570    -4.070289     5.199470
H     2.487496    -3.485483     5.789080
H     4.643791    -3.212738     0.871983
O     4.486796    -3.137332    -0.094775
H     3.629965    -2.656990    -0.182437
H    -2.749540    -0.738451    -1.346575
O    -3.078899    -0.466139    -0.473424
H    -3.876258     0.063058    -0.684096
H    -1.632683    -0.759898    -4.622486
O    -1.122459    -0.546724    -5.424974
H    -0.410906     0.046938    -5.138220
H     1.770905    -1.726709    -3.355515
O     1.864171    -0.979561    -2.732771
H     1.089786    -0.399368    -2.867585
H     3.609691    -3.138014     2.582972
O     4.568523    -3.366711     2.512346
H     4.621367    -4.327924     2.636113
H     3.357942    -6.136611     3.153997
O     3.722521    -5.927974     2.259161
H     2.986933    -5.588312     1.709881
H    -3.351439     1.620041    -4.177717
O    -4.198967     1.153207    -3.989090
H    -4.418912     1.300957    -3.033456
H    -5.094026     4.169005     0.057708
O    -5.535829     3.304503    -0.044908
H    -6.464653     3.427030    -0.330867
H     6.705395    -1.211798    -1.326363
O     5.932234    -1.058377    -0.776821
H     5.509079    -1.924266    -0.580107
H     4.560631    -3.191685    -2.438495
O     3.694773    -3.016972    -2.857208
H     3.697663    -3.636947    -3.612467
H     4.373011    -2.309185     5.653116
O     4.014002    -2.778698     6.437442
H     4.362099    -3.679865     6.364692
H    -0.772541     6.348414     5.077507
O    -1.368692     6.927075     5.613020
H    -1.377262     7.803710     5.170397
H     4.674549    -0.158168    -1.438074
O     3.909900     0.386985    -1.703144
H     3.216359    -0.211103    -2.035710
H    -0.738920     4.521651    -4.032495
O    -1.518795     5.067561    -4.243545
H    -1.365039     5.934267    -3.821978
H     0.653234     3.197682    -2.647125
O     0.665068     3.573197    -3.556001
H     0.711103     2.808816    -4.140424
H    -5.439636    -5.170220     1.797034
O    -4.744259    -5.765139     1.441349
H    -3.902734    -5.355521     1.718078
H     7.858827    -1.729145    -3.992876
O     7.599396    -1.413405    -3.094487
H     7.116673    -0.567771    -3.253961
H     3.668468    -5.094839    -5.258406
O     4.430909    -4.723742    -4.775463
H     4.810744    -5.435830    -4.227722
H    -3.829848     0.041261     4.935096
O    -4.429935     0.508256     5.565146
H    -5.093695    -0.146229     5.857122
H     3.412747    -5.958902    -0.488269
O     4.287666    -5.714724    -0.802278
H     4.366740    -4.752572    -0.660474
H     4.984077    -0.362692    -4.130798
O     4.446766    -1.072099    -4.521380
H     4.116210    -1.653517    -3.803949
H    -1.181704     1.571837    -3.929678
O    -1.828277     2.195000    -4.317741
H    -1.466918     2.523745    -5.163620
H     4.837172    -6.346292    -2.278188
O     5.172168    -6.672482    -3.142468
H     5.986911    -7.157627    -2.952460
H     8.699678    -5.133118    -2.870220
O     8.005025    -5.546811    -2.313161
H     8.035410    -6.504474    -2.414121
H     2.328050     4.711017     0.465769
O     1.746684     4.696119     1.235471
H     1.384726     3.777680     1.312496
H    -4.463113    -2.615578     4.235291
O    -5.352254    -2.270201     4.031476
H    -5.213568    -1.490555     3.453372
H    -5.892789    -3.168258     1.315399
O    -6.360831    -3.721734     1.983066
H    -6.174011    -3.288171     2.833957
H     1.650181     3.471601     6.876543
O     1.030646     3.987779     6.339492
H     0.246991     4.146378     6.908824
H     4.951257    -2.186041     3.649772
O     4.970669    -1.468786     4.315301
H     4.163609    -0.907413     4.152632
H     2.393318    -5.645444     4.889753
O     2.761055    -6.528112     4.632414
H     2.010286    -7.114315     4.498802
H     2.230922    -4.534708    -6.764183
O     2.057472    -5.021098    -5.948313
H     1.793499    -4.328179    -5.294576
H     6.395498    -4.131370    -0.464730
O     7.145513    -4.536118     0.002242
H     7.653461    -4.962624    -0.715919
H    -1.759830     4.508569     7.702674
O    -0.861428     4.603031     8.090077
H    -0.676695     5.561565     8.114469
H    -5.105713     5.707696    -5.607454
O    -4.501032     4.941795    -5.624417
H    -3.741314     5.152138    -6.188627
H     3.268855    -2.552842    -8.410140
O     3.176242    -3.083539    -7.608100
H     4.051673    -3.062902    -7.176679
H    -0.644613     8.826952    -2.279625
O    -0.519881     9.655606    -1.761482
H     0.239966     9.479013    -1.182242
H     2.014997    -0.762196     5.283951
O     1.472587    -1.320514     5.874440
H     1.482917    -0.907782     6.757043
H     5.186379    -2.054302    -5.660785
O     5.531158    -2.822710    -6.180462
H     5.252123    -3.610845    -5.662760
H     5.629008    -5.233141     4.724280
O     5.101089    -5.142931     5.547088
H     4.382898    -5.778961     5.462329
H    -4.020889     1.173385     7.006406
O    -3.829111     1.649565     7.849666
H    -4.704485     2.039522     8.107300
H    -1.837682     9.621924    -0.752041
O    -2.700039     9.499676    -0.279944
H    -3.307481     10.130029    -0.670667
H    -5.948359     4.710818    -2.951131
O    -6.856492     4.594827    -3.297725
H    -6.766860     3.891190    -3.973647
H     0.037339    -7.067097    -1.117430
O     0.500682    -7.501669    -0.368964
H    -0.177868    -7.695020     0.281578
H    -7.644363     3.820936    -1.990023
O    -7.909897     3.236090    -1.249711
H    -7.770192     2.326338    -1.587874
H     3.919241    -0.900270     7.014147
O     3.930259     0.063552     7.001381
H     4.745819     0.350729     6.573947
H     2.257415     5.785397    -1.167622
O     3.191240     5.488667    -1.049695
H     3.368219     4.947032    -1.841841
H     6.493999    -5.956766     0.714638
O     6.120955    -6.689971     1.249342
H     5.216298    -6.409612     1.471877
H    -3.902355     4.757284     7.775021
O    -3.335561     4.290860     7.118546
H    -3.533882     3.348617     7.229884
H     5.699345    -7.970156     0.180125
O     5.411873    -8.655856    -0.458763
H     4.583785    -8.328836    -0.854336
H    -0.602746     2.055948     7.702239
O    -1.233616     1.990667     6.964938
H    -2.104320     1.855610     7.359096
H    -6.417798    -0.092210     1.057134
O    -6.733006    -0.176305     0.142964
H    -7.653119    -0.442949     0.155927
H    -5.411404    -3.042718    -0.586319
O    -5.158771    -2.339347     0.038448
H    -5.725378    -1.565124    -0.153654
H     4.311000     5.560354     0.339109
O     4.642086     5.660520     1.245421
H     3.948559     6.175029     1.694415
H    -9.073264    -1.709258    -2.265775
O    -8.527101    -1.508871    -1.478192
H    -8.659357    -2.244529    -0.840248
H    -5.521861     3.486764    -5.536911
O    -6.043381     2.778981    -5.122494
H    -5.380503     2.191221    -4.706118
H     3.165189    -0.909872    -5.630845
O     2.310202    -1.026842    -6.099109
H     2.393618    -1.876975    -6.570990
H     8.098409    -1.392612    -5.988471
O     8.101513    -2.255781    -5.530421
H     7.244584    -2.652776    -5.783286
H     7.615271     0.949563    -6.274378
O     7.424110     0.101363    -6.686778
H     6.442691     0.055359    -6.726129
H    -7.908685    -3.658036     0.923604
O    -8.583996    -3.548344     0.236714
H    -8.487530    -4.309310    -0.363483
H    -2.404413     8.749610     1.285894
O    -2.258219     8.161555     2.040260
H    -1.489645     7.605097     1.820478
H    -4.457250     6.460388     3.486801
O    -4.623031     6.885455     2.629008
H    -3.856993     7.468319     2.490820
H     3.397204     3.427236    -3.558543
O     3.247602     4.397248    -3.466685
H     2.283401     4.465792    -3.577895
H    -6.141131    -1.584432    -3.445606
O    -6.228426    -2.161425    -2.660445
H    -7.013407    -1.850893    -2.155482
H     6.428006     1.029753     4.771788
O     6.033279     1.570554     5.472809
H     6.226104     2.488247     5.181492
H     1.357605     1.708157    -5.807695
O     1.158470     1.114382    -5.052975
H     1.518942     0.249297    -5.320548
H    -2.538902     2.990181     10.485502
O    -2.329263     2.081654     10.213179
H    -2.926589     1.883480     9.480152
H     7.586026    -0.525333     3.121529
O     6.837281     0.052758     3.287972
H     6.142310    -0.544475     3.666077
H    -5.720530    -8.030439    -0.693564
O    -4.987562    -8.101439    -0.045608
H    -4.989069    -7.284558     0.476805
H    -5.192841    -0.103262    -4.718070
O    -5.812168    -0.812868    -4.958315
H    -6.647880    -0.368163    -5.159850
H     1.882956    -0.217233    -7.495617
O     1.686013     0.254380    -8.340766
H     2.262824    -0.154396    -8.991546
H     4.865729    -1.427229    -9.273550
O     3.942457    -1.194740    -9.558971
H     3.924637    -1.314318    -10.507847
H     7.510535    -2.596851     4.240730
O     7.658807    -2.634175     3.281643
H     7.164580    -3.424476     3.009593
H     6.656653    -5.919095     2.728764
O     6.719703    -5.242856     3.429117
H     7.594167    -5.331727     3.849103
H    -1.823775     8.961480     3.491325
O    -1.577538     9.266102     4.390104
H    -2.427154     9.403351     4.842610
H    -7.396896     1.591736    -5.262656
O    -7.975349     0.850422    -5.017644
H    -8.875790     1.253666    -4.945521
H     6.918190    -1.124596    -8.367812
O     6.333875    -1.843474    -8.632146
H     6.101692    -2.291303    -7.800277
H    -1.658246     6.238444    -7.023845
O    -2.060369     5.415286    -6.750124
H    -1.815469     5.284958    -5.785579
H    -0.042730     3.325489     9.032020
O     0.149135     2.404779     9.287687
H    -0.651340     2.145237     9.793245
H     6.723337    -2.812150    -2.666471
O     6.188811    -3.553453    -2.325471
H     6.654411    -4.366764    -2.569486
H    -4.104696    -3.062440    -4.938072
O    -4.255242    -2.950439    -5.903513
H    -4.799521    -2.155590    -5.962669
H     1.933198     2.189846     8.481965
O     2.599291     2.297356     7.793235
H     3.018504     1.425395     7.681490
H    -6.954911    -5.173431    -1.395553
O    -7.871247    -5.438586    -1.643030
H    -8.000348    -5.037751    -2.527354
H    -3.852550     5.282297     5.691156
O    -3.814689     6.049168     5.098716
H    -2.879989     6.340402     5.195467
H    -7.908207     0.118987    -1.977671
O    -7.413909     0.840051    -2.390292
H    -7.639245     0.828752    -3.344331
H     5.807237     0.106713     0.443181
O     5.585784     0.829628     1.062761
H     6.093235     0.634011     1.877158
H    -6.253810     3.350229     7.385729
O    -6.130046     2.832372     8.215249
H    -6.733898     2.073968     8.126756
H     2.219803    -8.084257    -0.808103
O     2.896169    -8.074075    -1.505397
H     2.669845    -8.789527    -2.116330
H    -2.771833    -3.958617    -6.186100
O    -2.020892    -4.527164    -5.951408
H    -1.746431    -4.235930    -5.053571
H    -5.674102     3.795400     5.299335
O    -6.323124     4.194978     5.914478
H    -6.156509     5.138466     5.899745
H    -1.068818    -7.114228    -3.141124
O    -0.595657    -6.444226    -2.613718
H     0.313815    -6.380862    -2.990739
H     4.407514     2.006601     5.153277
O     3.466744     2.247887     5.029952
H     3.080478     2.269604     5.910843
H     4.079949     4.650814     6.320712
O     4.165873     5.379411     5.701526
H     3.599515     5.140223     4.929304
H     2.738729     3.612706     3.939247
O     2.565163     4.553223     3.771819
H     2.449149     4.651283     2.804842
H     9.367909     0.170443    -1.028442
O     8.561231     0.337453    -0.537298
H     8.380444    -0.480230    -0.044041
H    -2.141488     5.347744     10.650218
O    -2.866712     4.722368     10.880101
H    -3.087560     4.902100     11.794207
H     7.929643    -3.042095     0.370427
O     8.353171    -2.196590     0.625844
H     8.284834    -2.190345     1.587910
H     5.345901     3.648777     3.549796
O     6.000564     3.911318     4.218740
H     5.590121     4.632950     4.717132
H    -4.247951     5.057742     9.778085
O    -4.877728     5.209746     9.053380
H    -5.493236     4.464142     9.050819
H    -7.044167    -3.452933    -3.487952
O    -7.666118    -4.062292    -3.937492
H    -7.144815    -4.508153    -4.637158
H    -0.009625     6.147854     10.775607
O    -0.872285     6.481642     10.524888
H    -0.752119     6.910902     9.658547
H     2.578682     1.479147    -4.086091
O     3.457719     1.828702    -3.844943
H     3.773475     1.313469    -3.072759
H    -7.026174    -0.175838     7.212970
O    -7.531413     0.606122     7.488949
H    -8.152846     0.789661     6.783357
H    -2.810880    -9.861867    -0.808308
O    -2.745075    -8.921443    -0.974161
H    -3.649036    -8.550647    -0.734284
H    -10.070301     3.112347    -4.920067
O    -10.191927     2.195814    -4.638245
H    -10.410408     2.282160    -3.689368
H    -2.230538    -2.936649     4.613566
O    -3.024795    -3.499720     4.725410
H    -2.998845    -4.036307     3.898121
H    -0.245201    -8.054069     2.426649
O     0.589892    -7.872972     2.876925
H     1.290849    -8.131691     2.247192
H     6.646950    -2.393033     6.431745
O     7.093187    -3.105646     5.969761
H     6.461103    -3.838548     5.931134
H    -5.331117    -1.970860     6.947532
O    -6.000581    -1.468100     6.459562
H    -5.987313    -1.848666     5.552458
H     0.841239     3.018923    -7.103051
O     1.757605     2.684111    -7.155696
H     1.742582     1.935623    -7.780390
H    -3.968402     8.786290     6.660447
O    -3.962941     8.782328     5.703107
H    -4.091821     7.855002     5.436537
H    -2.037123     10.319930    -2.746418
O    -2.937229     10.504623    -3.050922
H    -2.861104     11.137043    -3.764737
H     9.351705    -4.094136     4.093298
O     9.066306    -4.769684     4.716066
H     8.637794    -4.294169     5.438614
H    -0.772130    -6.001982    -5.819718
O    -0.072221    -6.570964    -5.483040
H     0.766044    -6.113783    -5.698814
H     1.829214     8.270018     0.670594
O     1.529769     8.591528    -0.208354
H     2.346084     8.625321    -0.736619
H     3.501488     2.905325    -6.642539
O     4.326686     2.612565    -6.230220
H     4.077583     2.341207    -5.321715
H     3.737712     7.108279    -1.216104
O     3.948107     8.042766    -1.430381
H     4.319706     7.983656    -2.322538
H     4.389559    -0.037848    -7.884506
O     4.764585     0.108485    -7.014198
H     4.586104     1.041596    -6.772939
H     6.010622     1.907694    -0.446232
O     6.579120     2.097250    -1.206469
H     7.401011     1.614199    -1.009452
H     6.623685    -8.460920    -1.559938
O     7.263178    -8.254018    -2.294703
H     7.627040    -9.090373    -2.580073
H    -5.339327    -5.773176    -5.400321
O    -5.952613    -5.098841    -5.717781
H    -5.397335    -4.333692    -5.954626
H     0.659996     7.185084     7.605649
O    -0.242521     7.216276     7.962360
H    -0.795530     7.232594     7.143223
H    -8.926992    -2.800832    -4.110396
O    -9.444039    -1.989539    -3.945608
H    -9.153663    -1.327376    -4.576617
H    -2.459533    -5.980642    -2.126775
O    -3.334570    -5.688736    -2.399652
H    -3.521208    -6.065821    -3.284489
H    -3.024767    -5.894951    -5.395009
O    -3.628995    -6.500841    -4.923512
H    -3.151323    -7.323013    -4.753375
H    -1.383248     3.722870    -6.979302
O    -0.847090     2.965315    -6.705334
H    -1.085533     2.180227    -7.254751
H    -0.207173     0.406563    -8.203514
O    -1.102901     0.646396    -7.922955
H    -1.282900     0.124514    -7.124985
H    -10.427192     4.094867    -2.758457
O    -10.499512     3.317540    -2.189078
H    -9.671824     3.288598    -1.677727
H     4.562350     4.065208     1.741819
O     4.349990     3.145428     2.021565
H     5.064198     2.566407     1.742460
H     6.474648     1.364916    -4.188398
O     6.166783     0.743432    -3.494146
H     6.197485     1.240252    -2.651207
H     9.596553    -2.267607    -0.882853
O     9.876872    -2.055020    -1.781896
H     9.079106    -1.714380    -2.228499
H     9.934973    -3.367071    -3.049357
O     9.666968    -4.019075    -3.723867
H     9.277696    -3.511128    -4.446282
H    -7.759368    -8.542895    -1.661373
O    -7.019436    -7.951228    -1.790039
H    -7.393542    -7.036984    -1.781584
H     4.168328     6.058609    -3.804385
O     4.832026     6.757226    -3.718095
H     5.666001     6.300016    -3.577905
H     0.048773    -8.177929    -5.188071
O     0.068093    -9.160602    -5.054739
H     0.219851    -9.526483    -5.926179
H    -2.391909    -8.666162    -2.695150
O    -2.153593    -8.404394    -3.604466
H    -1.509104    -9.026874    -3.959980
H     2.117764    -10.829962    -3.456320
O     2.077183    -9.875041    -3.436371
H     1.293481    -9.602127    -3.963914
H     6.833978     3.295594    -4.545574
O     6.891269     2.615785    -5.244890
H     6.100109     2.751364    -5.788379
H    -3.761885    -3.551845     7.862250
O    -3.783588    -2.844688     7.217787
H    -3.568794    -3.240646     6.345172
H    -0.661471    -3.368973    -6.706988
O    -0.028203    -2.640082    -6.713870
H    -0.507837    -1.862108    -6.375149
H     0.589844     0.470603     8.766775
O     0.592952    -0.242603     8.124317
H    -0.330883    -0.527308     8.039178
H    -5.819981     7.388127    -4.267208
O    -6.323736     6.770368    -4.828678
H    -6.615696     6.041761    -4.237113
H    -4.260295     9.118362    -3.277244
O    -4.799525     8.324580    -3.171166
H    -4.395315     7.844687    -2.430238
H    -9.703037     5.832871    -4.670582
O    -10.240184     5.030704    -4.507138
H    -11.118951     5.234573    -4.829119
H     2.748020     6.516148     6.151825
O     1.788047     6.616637     6.246802
H     1.440853     5.704789     6.144480
H     4.809766     8.529008     0.098494
O     5.124180     8.529872     1.020470
H     5.527605     7.664316     1.153792
H     4.094553    -7.449204    -4.304271
O     3.336982    -7.731260    -4.848631
H     3.051764    -8.570478    -4.472192
H     0.371120     8.667367     4.235018
O     1.046587     8.019272     4.010056
H     1.268762     7.527209     4.826313
H     5.232755     4.165669    -3.134956
O     6.193902     4.131901    -3.079085
H     6.398200     3.550709    -2.329810
H    -2.637631    -1.522285     7.584828
O    -2.124895    -0.728504     7.796860
H    -2.746370    -0.100396     8.175045
H    -9.011682     7.970958    -4.172643
O    -8.948723     7.384505    -4.927995
H    -7.991952     7.216459    -5.060281
H     3.466558    -8.992626     1.126540
O     2.790656    -8.355521     1.362398
H     3.264617    -7.554374     1.652439
H     3.583628     8.161751     1.840557
O     2.790624     7.601482     1.951823
H     2.342812     7.840928     2.775997
N    -0.611970    -5.465085     5.732052
H     0.180927    -4.908527     5.726353
H    -1.332003    -4.846095     5.560637
