30

H    -3.469968     6.415862    -0.529284
O    -3.299179     7.065603    -1.256338
H    -3.191898     7.945245    -0.853837
H    -3.189400     4.904163     1.088190
O    -3.945017     5.301685     0.609032
H    -4.393456     5.794098     1.336770
H    -0.715013     6.303873     5.054939
O    -1.330405     6.876868     5.583447
H    -1.312350     7.759844     5.140250
H    -1.830359     9.680077    -0.769557
O    -2.649271     9.505140    -0.237799
H    -3.211989     10.276026    -0.353076
H    -2.341444     8.708868     1.293414
O    -2.201048     8.072029     2.023871
H    -1.402971     7.560637     1.783705
H    -4.422519     6.379721     3.547372
O    -4.574615     6.818775     2.685648
H    -3.711165     7.245146     2.494519
H    -1.810306     8.966896     3.484648
O    -1.563124     9.277642     4.384445
H    -2.414546     9.375046     4.842998
H    -3.813747     5.296282     5.827601
O    -3.822857     6.077987     5.241700
H    -2.862956     6.337280     5.278668
H    -4.220231     9.028319     6.664755
O    -4.126243     8.831734     5.728246
H    -4.186595     7.854178     5.675129
N    -5.188003     9.649919     2.890194
H    -5.002614     9.776701     3.827953
H    -5.251743     8.683445     2.823850
