33
Coordinates from ORCA-job grain_mol_opt.QMRegion
  H   -0.15111045156763     -3.44893946210061      3.72439666931067
  O   -0.47969944068411     -2.66423529374789      4.19127806668898
  H   0.20285678122209     -2.44621516061483      4.84816967981696
  H   -2.44708029526778     -3.62995719559941      1.85962004959271
  O   -2.48762605330285     -4.51756903683481      2.28145085115293
  H   -1.55838484573612     -4.83329993564244      2.30558193493149
  H   1.97646435048597     -1.72890365225008      2.89476338748726
  O   2.10398241311660     -2.67976884233918      2.76077942059807
  H   1.46359384617151     -2.90161279765608      2.05339981220333
  H   0.73335249145138     -5.10649211835406      1.86897097700408
  O   0.18014880967198     -5.10632678238964      2.67831622727913
  H   0.29304718301332     -6.01936612229453      3.00388309869225
  H   2.03983257157466     -3.61776129033927      4.30318971363530
  O   2.02296390091063     -4.08161009607180      5.16689379364731
  H   2.54115915029212     -3.49638571579368      5.75672738089418
  H   2.45295055973927     -5.65434618150059      4.85198912792956
  O   2.82333378872707     -6.53498314088464      4.59152571400583
  H   2.07441660604151     -7.12362888026011      4.45826033771189
  H   2.05727614960661     -0.77359664938055      5.25969110740788
  O   1.51839788030154     -1.33547104575584      5.85003718488140
  H   1.52930854825102     -0.92499251064474      6.73368402524998
  H   -2.18175808877565     -2.96214008070802      4.59404187030663
  O   -2.97358912474440     -3.52853375207186      4.70631142701194
  H   -2.94756431651518     -4.06289454954834      3.87758593921637
  H   -0.18249223046870     -8.06666627833937      2.38911841813682
  O   0.65302842573351     -7.88359714996663      2.83779935619032
  H   1.35340189500244     -8.13799787854179      2.20566331770207
  H   -3.70278200500416     -3.59158442937907      7.84488108105556
  O   -3.72875317965175     -2.88290118661436      7.20225643780076
  H   -3.51462210406620     -3.27585202304517      6.32812531409625
  O   -0.55086121103324     -5.48744015884228      5.70193832827158
  H   -1.27357749291049     -4.87072083429320      5.53365991168157
  H   0.23995139320809     -4.92791953454541      5.69570703424384
