12
Coordinates from ORCA-job grain_mol_opt.QMRegion
  H   3.72978616757532      7.03864672937191     -1.25612273660629
  O   3.95885188966063      7.97577874549100     -1.46051650228409
  H   4.30826129152358      7.89952428323532     -2.36415820851430
  H   4.95280783174009      8.36250386637991     -0.01147090741213
  O   5.27007768037670      8.38080733569623      0.91984452042902
  H   5.48949518943748      7.45131525907913      1.09662447740754
  H   3.56695868747084      8.23268267543382      1.87439126516765
  O   2.79822440655946      7.64389320529239      1.96323514234047
  H   2.30484637796503      7.87875995869605      2.76868879809071
  O   7.31382839394967     10.37519691353980      1.23126166770222
  H   8.14676176264564      9.90738026158684      1.12601184433090
  H   6.64336383380227      9.67353601921107      1.15120536148138
