24

H     2.224063    -4.587358    -6.680359
O     2.120697    -5.040205    -5.833268
H     1.852577    -4.318889    -5.203791
H     3.341360    -2.514600    -8.379256
O     3.248956    -3.185183    -7.668233
H     4.069989    -3.080985    -7.148215
H     5.238728    -2.045525    -5.532070
O     5.574432    -2.804716    -6.080391
H     5.318931    -3.604326    -5.559085
H     3.195475    -0.931090    -5.714101
O     2.302083    -1.070308    -6.080379
H     2.322206    -1.917718    -6.549946
H     4.828464    -1.344986    -9.290343
O     3.889892    -1.224178    -9.565021
H     3.824591    -1.827683    -10.316989
H     7.010056    -1.082253    -8.358661
O     6.407608    -1.800348    -8.600869
H     6.186741    -2.194200    -7.735645
H     4.568944     0.185392    -7.905588
O     4.803486     0.214107    -6.973516
H     4.670529     1.164007    -6.724598
N     4.759998    -3.906766    -10.296013
H     4.329628    -4.173400    -9.471360
H     5.634578    -3.615354    -10.009684
