30
Coordinates from ORCA-job grain_mol_opt.QMRegion
  H   -2.39440700991007     -3.59146718587012      1.92915305513327
  O   -2.42156590054832     -4.53432054522893      2.18072448192613
  H   -1.49290847264247     -4.76211614228603      2.39507621777058
  H   -2.16805926435754     -8.10364269723317      0.40712598799885
  O   -1.81769838586160     -7.65959404871513      1.21187700761876
  H   -2.59076047486297     -7.35242756586571      1.69144046906949
  H   -5.38350450052090     -5.02314247128278      1.76818482386896
  O   -4.71797902256585     -5.72697002750215      1.52282980841675
  H   -3.85270237787285     -5.25645715207456      1.58659365659860
  H   -4.45498969994188     -2.51510857408804      4.15800656775039
  O   -5.36736119139554     -2.19733224105395      3.97953333634815
  H   -5.23374027268083     -1.40307929399943      3.41337696298778
  H   -5.87899052222697     -3.12660850454561      1.23969366234698
  O   -6.34659467542212     -3.69034601366601      1.91010711904880
  H   -6.15014318748184     -3.21798889478813      2.74579260384445
  H   -5.71989393710057     -8.07802966669476     -0.75789145865575
  O   -5.04686900073770     -8.15651397042648     -0.04267727848509
  H   -5.01644738928427     -7.28411177402619      0.38405470320940
  H   -2.10751460273016     -3.08456607153748      4.58912037659999
  O   -3.00444926345714     -3.35033696802862      4.89257087481659
  H   -3.16175478220061     -4.24644211450224      4.54071175585604
  H   -5.34469503269615     -1.93296735670187      6.98551669197097
  O   -6.01942420209896     -1.44697583068281      6.48573354794293
  H   -5.96676614367226     -1.79685231403206      5.57205249799782
  H   -3.41306293027476     -3.51254098733992      7.99618076714447
  O   -3.71539160592408     -2.84930713520606      7.37234499674540
  H   -3.36594873266505     -3.11871122068671      6.48250640336067
  O   -4.18762365734359     -5.93622734920562      4.37971136215209
  H   -5.02637163714408     -5.90160130416440      4.84902013009899
  H   -4.43562619839779     -5.99581282632111      3.43851128811631
