30

H     0.657201    -4.982468     1.909705
O     0.134479    -5.129320     2.720749
H     0.209382    -6.084960     2.862452
H     3.294107    -6.113227     3.087997
O     3.728997    -5.914319     2.214500
H     3.014295    -5.566805     1.642325
H     2.260452    -5.581116     4.834774
O     2.491379    -6.493678     4.506582
H     1.651001    -6.899602     4.263110
H     5.777214    -5.312783     4.771051
O     5.323606    -5.110201     5.629581
H     5.383989    -5.900372     6.166433
H     6.559854    -5.871411     0.700732
O     6.209511    -6.626313     1.228115
H     5.298211    -6.348336     1.452294
H     5.711745    -7.890478     0.081549
O     5.405317    -8.626663    -0.496115
H     4.646479    -8.255995    -0.984888
H     6.778717    -5.899140     2.741081
O     6.822720    -5.252836     3.474261
H     7.717382    -5.311460     3.866826
H    -0.413396    -8.021358     2.283136
O     0.424694    -7.944449     2.769371
H     1.115882    -8.293274     2.181442
H     3.642814    -8.958905     0.858888
O     2.972102    -8.542639     1.419773
H     3.344013    -7.659574     1.603852
N     4.206321    -8.864907     4.269474
H     3.682473    -8.106105     4.561609
H     3.847983    -9.053595     3.392149
