30

H     0.654203    -4.977316     1.906619
O     0.134899    -5.126519     2.719365
H     0.225471    -6.080047     2.865602
H     3.291044    -6.108385     3.089537
O     3.725997    -5.912393     2.215421
H     3.012719    -5.564228     1.642319
H     2.268945    -5.580894     4.840829
O     2.501108    -6.494016     4.514418
H     1.659259    -6.903039     4.280786
H     5.773969    -5.285855     4.750589
O     5.317915    -5.100399     5.612309
H     5.394549    -5.896200     6.138781
H     6.567786    -5.855577     0.701305
O     6.214194    -6.613942     1.222401
H     5.301687    -6.336481     1.440203
H     5.721310    -7.874536     0.076938
O     5.409402    -8.617482    -0.489000
H     4.649157    -8.251808    -0.979180
H     6.783962    -5.892158     2.734562
O     6.829648    -5.251587     3.472485
H     7.724773    -5.308786     3.864395
H    -0.405517    -8.028560     2.282940
O     0.430890    -7.937230     2.768525
H     1.126574    -8.295374     2.192284
H     3.661194    -8.969420     0.866956
O     2.980319    -8.548732     1.412475
H     3.349563    -7.666228     1.602411
N     4.140891    -8.923325     4.281442
H     3.664260    -8.133928     4.573231
H     3.795781    -9.069369     3.390397
