42

H     4.572015    -3.254690    -2.501277
O     3.711688    -2.988572    -2.886852
H     3.638099    -3.599475    -3.641324
H     7.801476    -1.676316    -4.100755
O     7.546511    -1.388602    -3.187097
H     7.055579    -0.536789    -3.330356
H     3.617034    -5.145465    -5.357401
O     4.395098    -4.770997    -4.891862
H     4.736770    -5.462189    -4.279963
H     4.780232    -6.335208    -2.244161
O     5.083092    -6.631605    -3.136471
H     5.954751    -7.045172    -3.000410
H     9.577599    -5.744024    -2.208784
O     9.165175    -6.131315    -1.429554
H     8.567956    -6.817221    -1.780199
H     6.805760    -4.283917    -0.867664
O     7.330116    -4.577761    -0.091819
H     8.075229    -5.067982    -0.497735
H     5.127238    -2.043072    -5.664285
O     5.488589    -2.798737    -6.196138
H     5.194596    -3.608943    -5.703703
H     8.054175    -1.277177    -6.123891
O     8.129849    -2.150557    -5.675857
H     7.248317    -2.545876    -5.864581
H     6.688457    -2.818418    -2.706225
O     6.262939    -3.658620    -2.415256
H     6.570650    -4.310037    -3.076805
H     6.645113    -8.430903    -1.555006
O     7.276129    -8.108229    -2.258612
H     7.523856    -8.898465    -2.746267
H     9.476655    -2.212930    -0.900431
O     9.815034    -1.978199    -1.783357
H     9.029651    -1.604823    -2.238218
H     9.941870    -3.241181    -3.064043
O     9.885721    -3.828406    -3.854885
H     9.741316    -3.219201    -4.591789
H     4.008185    -7.545511    -4.225020
O     3.295964    -7.786610    -4.851024
H     2.937127    -8.593748    -4.453285
N     7.591906    -5.232988    -4.218492
H     7.421571    -5.228798    -5.164050
H     8.445908    -4.749323    -4.100840
