18
Coordinates from ORCA-job grain_mol_opt.QMRegion
  H   1.34057298593252      1.61313255082691     -5.80048147364787
  O   1.16258142542318      1.03494310081030     -5.02105501228524
  H   1.57619910847432      0.18809726359461     -5.26675412772709
  H   2.03275791412609     -0.18286549980862     -7.54281049305760
  O   1.91796428614674      0.24662495140978     -8.42372927100491
  H   2.52225149716138     -0.25914643608305     -8.98825227024565
  H   0.89606347348047      3.12466792515640     -7.12524302219430
  O   1.78127424642633      2.71353720883421     -7.05751401218958
  H   1.85357775004638      2.10992560427175     -7.80919433345624
  H   -1.41778977127447      3.80704949502180     -6.94755747551302
  O   -0.85370688144252      3.05705814186464     -6.69185639190595
  H   -1.10199096486295      2.26662566923415     -7.21867988202627
  H   -0.30614970542472      0.24773404864370     -8.08332071279891
  O   -1.16873652906791      0.59788306598531     -7.82286981422222
  H   -1.35738527593584      0.13531568691718     -6.97999394753869
  O   0.20734419569802      2.36483972583668     -9.98252902569763
  H   -0.66876769849874      2.00482293769542     -9.80708060946199
  H   0.79320303492922      1.61656156035642     -9.81848449612608
