39

H     6.597785    -1.272215    -1.396952
O     5.880009    -1.101200    -0.786250
H     5.423055    -1.958038    -0.588038
H     7.922472    -1.725035    -4.008618
O     7.638074    -1.420130    -3.118750
H     7.142924    -0.580163    -3.311806
H     4.792636    -6.360128    -2.232564
O     5.129966    -6.668188    -3.104738
H     5.877278    -7.264297    -2.947157
H     8.748142    -5.398734    -3.780926
O     8.196241    -5.726158    -3.040475
H     8.130851    -6.688940    -3.100393
H     6.721391    -4.127295    -0.676203
O     7.111221    -4.307568     0.204726
H     8.034831    -4.594200    -0.025260
H     6.389218    -5.886478     0.735527
O     6.116986    -6.664885     1.270030
H     5.212546    -6.429588     1.559450
H     6.751449    -2.971061    -2.737189
O     6.289408    -3.739324    -2.349828
H     6.641738    -4.525902    -2.798642
H     9.343411     0.349878    -0.851242
O     8.633304     0.655567    -0.282469
H     8.338514    -0.144184     0.190932
H     7.670605    -2.640759     0.597544
O     8.229985    -1.883409     0.887712
H     8.289004    -2.056231     1.843155
H     6.609864    -8.608335    -1.589532
O     7.166447    -8.444660    -2.403466
H     7.223405    -9.304049    -2.830223
H     9.486864    -2.039062    -0.431562
O     9.893560    -2.125762    -1.318976
H     9.181556    -1.850736    -1.919396
H     10.427654    -3.920794    -4.348590
O     9.715827    -4.316835    -4.862317
H     9.212914    -3.551908    -5.201774
N     9.552097    -4.933463    -0.720424
H     9.825840    -4.042025    -1.009012
H     9.165387    -5.324038    -1.529160
