33
Coordinates from ORCA-job grain_mol_opt.QMRegion
  H   -4.60578577395686      0.48842753876176      2.13328560372965
  O   -4.96885760493466     -0.42520096990198      2.15568421429607
  H   -4.50094320680213     -0.93118693860830      1.47741233794101
  H   -4.84218313778438      2.54232639709004      1.27516703087032
  O   -4.20696399153727      2.15407633445535      1.91191959142328
  H   -3.36052717623766      2.14538969239413      1.39754994305119
  H   -4.33071872061799      2.79178882385185      3.50975063654118
  O   -4.36258870261171      2.92355456945356      4.48177560715725
  H   -4.46638883921222      2.01306511532309      4.84603030758811
  H   -3.71183273682580     -0.00658490170304      4.94715585563131
  O   -4.29387174631234      0.47285601014693      5.58886915335439
  H   -4.96772634824507     -0.18956088377743      5.85458044568056
  H   -3.91880126711932      1.14146909945875      7.06580753694380
  O   -3.81002892798275      1.65828488820565      7.89731298783015
  H   -4.70071071184635      2.05157039239434      8.08445595180135
  H   -6.41792125562840     -0.19520106019499      1.03788291907467
  O   -6.68788524494296     -0.23230361862686      0.10286897358764
  H   -7.57217765279657     -0.60685810045872      0.04992896932095
  H   -6.20854199527300      3.43500143789949      7.36967277979004
  O   -6.14980064024170      2.88068774778710      8.17517375933849
  H   -6.79079586028986      2.15574479679438      8.01456489294180
  H   -5.47754007611999      3.90242207419181      5.19282416513675
  O   -6.22155969056345      4.27723621243998      5.74001474568717
  H   -6.16939146651909      5.23097021385598      5.63105054195871
  H   -7.21022808998538     -0.05051432959407      7.10863382410036
  O   -7.66687514102167      0.79391122939609      7.23580595551607
  H   -7.78908898463730      1.13715326331405      6.32998649521593
  H   -5.20717696354974     -2.01803326917730      6.93129634565572
  O   -5.91080573268638     -1.52237445246054      6.47412326172873
  H   -5.91113280821805     -1.91513687203031      5.57217488380253
  O   -7.67323749843892      2.11832737937775      4.72409921786838
  H   -7.37674760013461      3.02297292661343      4.94371592785850
  H   -8.44739692148344      2.22752784631855      4.16720816621305
