603

H     0.207656     3.039532    -0.691174
O     0.731436     2.374797    -1.188439
H     1.670224     2.504402    -0.915885
H    -0.048462    -1.295645     3.146495
O     0.328703    -0.596275     2.590575
H    -0.142449     0.217460     2.834390
H    -2.391504     2.414587    -0.542753
O    -2.176004     1.946834     0.281287
H    -2.191103     0.998248     0.059708
H    -4.644155     0.551378     2.185996
O    -4.961428    -0.381902     2.199372
H    -4.454423    -0.860491     1.535300
H     0.076471    -0.300782     0.943224
O    -0.119071    -0.063438     0.015253
H     0.218383     0.834013    -0.101813
H    -0.120861    -3.562490     3.777518
O    -0.402933    -2.732782     4.196123
H     0.246359    -2.556518     4.894414
H    -4.872686     2.533835     1.330415
O    -4.231714     2.126078     1.944497
H    -3.389327     2.108884     1.431389
H    -3.247630     3.899340    -2.216856
O    -2.507705     3.304556    -1.988023
H    -2.151833     3.015759    -2.848247
H    -0.105751    -3.795592     0.500528
O     0.234836    -2.975811     0.912805
H    -0.550900    -2.490982     1.230984
H    -2.352884    -1.530633     2.471262
O    -2.169870    -1.998005     1.629501
H    -2.428488    -1.410129     0.900982
H     2.080417    -1.434834    -1.134340
O     2.319897    -1.688314    -0.219593
H     1.533273    -2.113760     0.172600
H    -1.372632     1.836313     1.905452
O    -1.469274     1.438936     2.780755
H    -1.447171     2.150010     3.446780
H     0.220007    -2.696664    -1.573347
O    -0.534062    -2.083524    -1.630963
H    -0.355544    -1.358081    -0.995394
H    -3.418493    -2.923001    -0.385213
O    -2.702588    -3.413318    -0.810421
H    -1.993603    -2.781471    -1.028748
H     2.780362     0.155356     2.917956
O     2.871520    -0.022309     3.877926
H     2.967911     0.867116     4.281429
H    -3.527007     6.383040    -0.550524
O    -3.291577     7.045316    -1.252427
H    -3.150327     7.891062    -0.783229
H     3.906034     0.600846     1.160129
O     2.953848     0.424506     1.271089
H     2.720805    -0.339597     0.707028
H    -5.773648     0.840470    -1.597999
O    -4.863407     1.170061    -1.476467
H    -4.973954     1.998831    -0.965280
H    -1.201098     5.407001     2.199708
O    -1.825222     4.659444     2.083487
H    -1.899744     4.239491     2.945915
H     3.490665     2.779126     0.398717
O     3.257718     2.736116    -0.544591
H     3.583022     1.886419    -0.883470
H     1.505764    -4.690126    -2.257473
O     1.568693    -3.910349    -1.687745
H     2.361163    -3.447939    -2.039874
H    -0.914442    -0.081515    -2.554274
O    -0.282483     0.572137    -2.880647
H    -0.022237     1.155513    -2.144376
H     1.717497    -4.673706    -0.185918
O     1.831382    -5.311050     0.554633
H     1.366809    -6.122753     0.262607
H    -1.216116    -3.262693    -2.881017
O    -1.041521    -3.946202    -3.541448
H    -0.914017    -4.792558    -3.071473
H    -2.760802     3.320338     4.699747
O    -1.779975     3.321464     4.662141
H    -1.482360     2.919230     5.496616
H     0.978505     5.051525     4.059194
O     0.031695     5.282286     4.111609
H    -0.437331     4.478270     4.372701
H    -1.711576    -4.645156    -0.369381
O    -0.944709    -5.185694    -0.088661
H    -1.288097    -5.869373     0.495845
H    -3.921011     5.832139    -2.603320
O    -4.271268     4.997269    -2.931674
H    -4.118763     4.961572    -3.900109
H    -2.406377    -3.681671     1.940336
O    -2.422483    -4.586694     2.314222
H    -1.481860    -4.821865     2.455209
H    -4.685110    -2.981557    -2.890692
O    -3.833786    -3.213948    -3.299518
H    -3.500050    -4.005758    -2.833041
H     0.364539     1.392642     4.603537
O     0.853489     2.161148     4.263017
H     0.916852     2.813506     4.974575
H    -4.637732    -5.170560    -1.559666
O    -5.338961    -4.817758    -0.984888
H    -5.122516    -5.169871    -0.100458
H     2.339655    -6.475948    -4.045574
O     2.004960    -6.144940    -3.192156
H     2.440031    -6.717631    -2.528118
H     0.475506    -3.374914    -4.009372
O     1.275552    -3.007011    -4.437399
H     0.950467    -2.638299    -5.285027
H     2.006183    -1.736850     2.978312
O     2.151639    -2.667015     2.751796
H     1.459392    -2.874880     2.091192
H    -3.007551    -1.809067    -3.208327
O    -2.586158    -0.921804    -3.148094
H    -3.244813    -0.277697    -3.464190
H    -3.182166     4.981435     1.073301
O    -3.965312     5.353771     0.620132
H    -4.379466     5.911406     1.327199
H     0.888973     2.269562     2.575621
O     0.988909     2.265162     1.604047
H     1.713817     1.638678     1.440653
H     0.192841     5.664458    -0.774753
O     0.713179     6.326716    -1.285094
H     0.853166     7.127383    -0.730221
H     0.352223     7.048415     2.572805
O    -0.010145     6.669269     1.754947
H     0.652115     5.996565     1.494543
H    -2.458766     0.224156     3.339627
O    -2.677025    -0.589547     3.846354
H    -1.913392    -0.625602     4.465459
H    -0.864617     0.567986     6.018413
O    -0.593081     0.050738     5.242195
H     0.127750    -0.548649     5.525217
H     0.738160    -4.979720     1.977757
O     0.193992    -5.092089     2.780182
H     0.344687    -6.010609     3.055701
H    -2.091800    -8.081572     0.455909
O    -1.767033    -7.592984     1.239492
H    -2.551577    -7.281561     1.698419
H    -0.383719     6.869034    -2.340849
O    -1.131918     7.287193    -2.838721
H    -1.920394     7.160627    -2.272762
H    -1.104812     4.318300     0.563139
O    -0.735373     4.379172    -0.334638
H    -1.443845     4.134468    -0.963737
H    -4.391543     2.753781     3.507155
O    -4.389122     2.925876     4.471327
H    -4.468008     2.043070     4.881969
H     2.060391    -3.564106     4.235276
O     1.995775    -4.034419     5.089109
H     2.523274    -3.502338     5.711041
H     4.702593    -3.183007     0.821525
O     4.547113    -3.097818    -0.149167
H     3.682593    -2.629198    -0.227666
H    -2.712091    -0.745337    -1.352391
O    -3.037546    -0.474384    -0.477802
H    -3.839606     0.049622    -0.682532
H    -1.616936    -0.760891    -4.635410
O    -1.110754    -0.545143    -5.440270
H    -0.402364     0.053109    -5.155959
H     1.799749    -1.706475    -3.388899
O     1.896173    -0.956113    -2.770689
H     1.114434    -0.383206    -2.895694
H     3.707284    -3.093476     2.539972
O     4.657244    -3.343012     2.433473
H     4.695825    -4.300929     2.578734
H     3.455807    -6.105019     3.115961
O     3.806750    -5.913780     2.210714
H     3.069437    -5.559814     1.673461
H    -3.345763     1.609981    -4.178708
O    -4.189243     1.138328    -3.985552
H    -4.404600     1.284218    -3.028140
H    -5.075522     4.149851     0.066589
O    -5.512742     3.283045    -0.036201
H    -6.444541     3.400441    -0.313627
H     6.701458    -1.224104    -1.462387
O     5.985449    -1.035280    -0.850361
H     5.540631    -1.886846    -0.625421
H     4.599633    -3.160257    -2.485604
O     3.735182    -2.984527    -2.905307
H     3.735924    -3.606971    -3.658497
H     4.451273    -2.267638     5.607728
O     4.096453    -2.748474     6.398650
H     4.460336    -3.641156     6.324574
H    -0.735836     6.351366     5.060444
O    -1.331343     6.928159     5.599441
H    -1.347272     7.804243     5.156621
H     4.705700    -0.136040    -1.490998
O     3.943864     0.413301    -1.753285
H     3.243057    -0.182716    -2.075278
H    -0.747233     4.526819    -4.049198
O    -1.531073     5.068177    -4.257103
H    -1.381279     5.935331    -3.834909
H     0.660154     3.211701    -2.672622
O     0.667157     3.587416    -3.582119
H     0.709548     2.822659    -4.166203
H    -5.357513    -5.190297     1.807616
O    -4.661281    -5.784205     1.450142
H    -3.820345    -5.367182     1.718477
H     7.883271    -1.675052    -4.066550
O     7.625980    -1.354651    -3.167509
H     7.137369    -0.512561    -3.333284
H     3.705930    -5.063989    -5.302835
O     4.470627    -4.689343    -4.825758
H     4.856355    -5.399357    -4.279427
H    -3.756228     0.028172     4.937437
O    -4.357611     0.492360     5.569747
H    -5.015230    -0.166800     5.864697
H     3.487839    -5.928613    -0.525297
O     4.355217    -5.677257    -0.854953
H     4.429536    -4.715392    -0.707853
H     4.996433    -0.323852    -4.182387
O     4.468458    -1.040020    -4.571075
H     4.140383    -1.622584    -3.852518
H    -1.173590     1.573656    -3.943563
O    -1.825173     2.193006    -4.329392
H    -1.470109     2.523783    -5.176862
H     4.898784    -6.309676    -2.330227
O     5.233707    -6.632103    -3.196228
H     6.048948    -7.117426    -3.008865
H     8.755446    -5.079255    -2.940637
O     8.064640    -5.492906    -2.381803
H     8.095278    -6.451169    -2.481306
H     2.342860     4.730263     0.428032
O     1.765806     4.714748     1.200324
H     1.410561     3.793352     1.284635
H    -4.386147    -2.626308     4.239151
O    -5.281578    -2.289348     4.038052
H    -5.147604    -1.508130     3.462071
H    -5.824750    -3.193662     1.329995
O    -6.285413    -3.750274     2.000065
H    -6.094173    -3.313822     2.849649
H     1.714180     3.487110     6.844692
O     1.090117     4.004817     6.313545
H     0.307623     4.154698     6.886116
H     5.064857    -2.100287     3.609407
O     5.040136    -1.448631     4.327072
H     4.280859    -0.856902     4.126070
H     2.429120    -5.549350     4.831844
O     2.806877    -6.436271     4.570476
H     2.060555    -7.018429     4.405028
H     2.255186    -4.514076    -6.799469
O     2.092181    -5.000727    -5.981712
H     1.826247    -4.309238    -5.326831
H     6.450668    -4.090539    -0.518345
O     7.212405    -4.480885    -0.058899
H     7.719424    -4.904707    -0.778531
H    -1.698626     4.507820     7.690128
O    -0.799737     4.608540     8.074465
H    -0.619480     5.567504     8.095668
H    -5.131042     5.687386    -5.598144
O    -4.521983     4.925015    -5.619594
H    -3.767061     5.139957    -6.188326
H     3.273447    -2.525657    -8.451890
O     3.189462    -3.057022    -7.649334
H     4.067169    -3.032344    -7.223890
H    -0.667628     8.831849    -2.297315
O    -0.543622     9.661826    -1.781135
H     0.219397     9.488977    -1.204949
H     2.099255    -0.901599     5.194443
O     1.514861    -1.414198     5.783335
H     1.628535    -1.079018     6.681727
H     5.206040    -2.017757    -5.713640
O     5.556224    -2.783699    -6.233171
H     5.279561    -3.573778    -5.716433
H     5.730736    -5.192570     4.667899
O     5.215611    -5.114038     5.498726
H     4.487836    -5.738477     5.412130
H    -3.944033     1.160204     7.007445
O    -3.751370     1.637967     7.850055
H    -4.627365     2.021926     8.112632
H    -1.855909     9.620752    -0.762792
O    -2.714618     9.493519    -0.285860
H    -3.328230     10.120207    -0.672758
H    -5.952194     4.685627    -2.936665
O    -6.861405     4.565173    -3.278878
H    -6.771822     3.861455    -3.954668
H     0.112911    -7.056800    -1.141350
O     0.581098    -7.492624    -0.396426
H    -0.094328    -7.685893     0.256864
H    -7.637189     3.786010    -1.966026
O    -7.895783     3.199940    -1.224398
H    -7.751771     2.290845    -1.562461
H     3.987544    -0.875841     6.970132
O     4.010268     0.088031     6.984611
H     4.805010     0.365263     6.509072
H     2.258342     5.807551    -1.200250
O     3.196189     5.517940    -1.092884
H     3.367064     4.975104    -1.885282
H     6.569821    -5.913411     0.656170
O     6.203215    -6.652303     1.185367
H     5.301655    -6.374092     1.423684
H    -3.842760     4.744045     7.775898
O    -3.277775     4.281979     7.115186
H    -3.466814     3.337925     7.228580
H     5.785759    -7.929460     0.122703
O     5.500765    -8.615524    -0.517931
H     4.666647    -8.294444    -0.905534
H    -0.525110     2.059962     7.682110
O    -1.161961     1.998221     6.949925
H    -2.027835     1.851849     7.349940
H    -6.365809    -0.120439     1.071299
O    -6.690657    -0.205119     0.159913
H    -7.608647    -0.477904     0.183132
H    -5.357136    -3.063755    -0.577001
O    -5.103932    -2.360112     0.046641
H    -5.675840    -1.588428    -0.139841
H     4.318358     5.592880     0.292818
O     4.663630     5.692483     1.194152
H     3.971947     6.199950     1.654132
H    -9.036140    -1.752919    -2.232958
O    -8.485879    -1.549337    -1.449247
H    -8.609951    -2.284990    -0.809691
H    -5.533964     3.464009    -5.525252
O    -6.049115     2.753189    -5.108202
H    -5.380717     2.169365    -4.694992
H     3.176779    -0.884349    -5.671861
O     2.320457    -1.004486    -6.136225
H     2.403232    -1.855232    -6.606822
H     8.111250    -1.338655    -6.057969
O     8.121716    -2.199963    -5.596036
H     7.266201    -2.603454    -5.846161
H     7.611393     1.002746    -6.345424
O     7.424171     0.150260    -6.750426
H     6.442572     0.099147    -6.788503
H    -7.840383    -3.693060     0.949910
O    -8.520965    -3.588758     0.267182
H    -8.423120    -4.349265    -0.333129
H    -2.404593     8.744572     1.278737
O    -2.250744     8.157439     2.032128
H    -1.480379     7.605010     1.808189
H    -4.431794     6.443508     3.491765
O    -4.605085     6.868117     2.635060
H    -3.842919     7.454997     2.492858
H     3.396915     3.453323    -3.601521
O     3.245384     4.422961    -3.509628
H     2.279628     4.487125    -3.612693
H    -6.111931    -1.610243    -3.430547
O    -6.191435    -2.188792    -2.645819
H    -6.974098    -1.882090    -2.134709
H     6.238128     0.786804     4.674569
O     6.012848     1.359569     5.428200
H     6.273968     2.259076     5.148482
H     1.354024     1.725034    -5.838131
O     1.164949     1.130962    -5.081205
H     1.525443     0.266773    -5.351212
H    -2.453999     2.985581     10.477177
O    -2.242519     2.077137     10.206533
H    -2.839854     1.875722     9.474361
H     7.816599     0.514387     2.848333
O     6.953088     0.105692     3.080092
H     7.096933    -0.857938     3.140453
H    -5.637063    -8.054208    -0.680474
O    -4.900146    -8.121080    -0.036289
H    -4.903251    -7.303009     0.484612
H    -5.179693    -0.123893    -4.708426
O    -5.795943    -0.837035    -4.946194
H    -6.635642    -0.397156    -5.141727
H     1.878833    -0.197693    -7.529571
O     1.675464     0.273281    -8.373419
H     2.249139    -0.133603    -9.028034
H     4.858551    -1.392228    -9.325997
O     3.932507    -1.163912    -9.604618
H     3.907959    -1.283770    -10.553337
H     7.498072    -2.548191     4.211365
O     7.563144    -2.513077     3.239447
H     7.057474    -3.290944     2.953380
H     6.754894    -5.872324     2.670567
O     6.812929    -5.187418     3.360441
H     7.695242    -5.250385     3.768545
H    -1.812056     8.959938     3.480666
O    -1.561822     9.267302     4.377334
H    -2.409369     9.397706     4.835854
H    -7.396511     1.558283    -5.239814
O    -7.969393     0.813431    -4.992495
H    -8.871479     1.211730    -4.914026
H     6.914798    -1.078091    -8.432091
O     6.333366    -1.800861    -8.691736
H     6.108624    -2.249372    -7.858179
H    -1.695819     6.238294    -7.035329
O    -2.089856     5.411766    -6.760041
H    -1.839277     5.283277    -5.796604
H     0.032296     3.334235     9.010252
O     0.230939     2.415703     9.267619
H    -0.565843     2.150586     9.775450
H     6.760002    -2.782090    -2.752768
O     6.234447    -3.518187    -2.393328
H     6.700056    -4.334035    -2.628844
H    -4.076028    -3.077345    -4.935106
O    -4.232708    -2.966157    -5.899780
H    -4.782109    -2.174504    -5.955254
H     2.015610     2.202061     8.448441
O     2.675090     2.318192     7.755179
H     3.101519     1.448566     7.637992
H    -6.892388    -5.204654    -1.375115
O    -7.808209    -5.476166    -1.617884
H    -7.945063    -5.074968    -2.500881
H    -3.806856     5.269958     5.691281
O    -3.776720     6.038110     5.099756
H    -2.842571     6.332757     5.190632
H    -7.879321     0.082932    -1.950978
O    -7.392337     0.806640    -2.367684
H    -7.623580     0.793264    -3.320069
H     5.755316     0.056832     0.319369
O     5.567900     0.791064     0.937424
H     6.045828     0.544403     1.768533
H    -6.188393     3.324185     7.399993
O    -6.058069     2.808090     8.229584
H    -6.656396     2.044967     8.143993
H     2.303348    -8.061351    -0.842767
O     2.974908    -8.048761    -1.544500
H     2.747538    -8.765396    -2.153685
H    -2.745496    -3.965832    -6.190690
O    -1.989081    -4.529321    -5.961084
H    -1.711702    -4.236900    -5.064415
H    -5.622951     3.771089     5.311794
O    -6.271559     4.168679     5.929039
H    -6.106651     5.112491     5.915502
H    -1.006102    -7.111340    -3.157628
O    -0.533166    -6.439159    -2.633024
H     0.373387    -6.370021    -3.015497
H     4.445944     1.998827     5.104453
O     3.520194     2.299445     4.993881
H     3.137028     2.296945     5.876043
H     4.134033     4.673264     6.273182
O     4.238664     5.393069     5.646579
H     3.663334     5.161770     4.880106
H     2.777886     3.642617     3.908228
O     2.601687     4.581655     3.733296
H     2.477568     4.671759     2.767363
H     9.448794     0.041863    -0.956945
O     8.707763     0.361842    -0.420843
H     8.357351    -0.471232    -0.045145
H    -2.066421     5.346291     10.639689
O    -2.787226     4.717696     10.874452
H    -3.001544     4.894943     11.790562
H     7.955383    -3.082526     0.396172
O     8.414771    -2.243912     0.630548
H     8.312564    -2.212587     1.592778
H     5.388086     3.641184     3.594114
O     6.071888     3.877700     4.247948
H     5.648378     4.583686     4.768362
H    -4.176834     5.043004     9.780805
O    -4.813204     5.191881     9.061205
H    -5.422783     4.441380     9.061375
H    -7.004576    -3.484127    -3.467052
O    -7.625473    -4.097436    -3.913004
H    -7.105779    -4.539925    -4.615854
H     0.060524     6.155258     10.753022
O    -0.804017     6.488379     10.507822
H    -0.690052     6.916050     9.639889
H     2.585506     1.504568    -4.125670
O     3.466090     1.854968    -3.889417
H     3.784021     1.341566    -3.117266
H    -6.939270    -0.206518     7.232666
O    -7.449210     0.571053     7.513332
H    -8.073906     0.752546     6.810084
H    -2.719017    -9.868822    -0.813693
O    -2.658447    -8.927625    -0.977098
H    -3.563794    -8.561918    -0.732995
H    -10.076220     3.063800    -4.881097
O    -10.191239     2.146600    -4.598698
H    -10.404075     2.231797    -3.648371
H    -2.035908    -3.010335     4.617648
O    -2.911320    -3.450054     4.689733
H    -2.906421    -4.070157     3.935624
H    -0.147252    -7.969126     2.490071
O     0.680138    -7.757800     2.935538
H     1.397310    -8.052539     2.346920
H     6.750770    -2.331160     6.335532
O     7.196758    -3.069842     5.914404
H     6.548221    -3.788924     5.880216
H    -5.237627    -1.989201     6.954328
O    -5.916591    -1.493297     6.471743
H    -5.901765    -1.871645     5.563142
H     0.823324     3.033011    -7.129361
O     1.741413     2.703326    -7.188729
H     1.725348     1.954766    -7.813212
H    -3.935034     8.772883     6.662326
O    -3.936705     8.769163     5.704950
H    -4.060806     7.840695     5.439505
H    -2.071274     10.317165    -2.755419
O    -2.974028     10.496859    -3.055046
H    -2.905471     11.129937    -3.769021
H     9.456036    -3.998775     4.016674
O     9.167628    -4.685118     4.624475
H     8.736594    -4.224713     5.356026
H    -0.732299    -5.997255    -5.836427
O    -0.027073    -6.563172    -5.505567
H     0.807259    -6.100848    -5.725066
H     1.825892     8.288721     0.638840
O     1.520317     8.609619    -0.238304
H     2.333317     8.648262    -0.770906
H     3.486105     2.933731    -6.686863
O     4.315171     2.645941    -6.278331
H     4.070695     2.372714    -5.369083
H     3.729267     7.139019    -1.261535
O     3.935724     8.074483    -1.476224
H     4.298899     8.018678    -2.371771
H     4.382885    -0.006444    -7.931746
O     4.765351     0.145027    -7.065475
H     4.579021     1.076465    -6.823553
H     6.070933     1.907590    -0.567435
O     6.663938     2.149836    -1.293787
H     7.462074     1.628068    -1.116409
H     6.703665    -8.411803    -1.621747
O     7.338731    -8.201540    -2.360438
H     7.704544    -9.036529    -2.647408
H    -5.297829    -5.794629    -5.389845
O    -5.916704    -5.124206    -5.704620
H    -5.367326    -4.355482    -5.943729
H     0.709957     7.196838     7.578679
O    -0.190384     7.226661     7.940451
H    -0.748830     7.237460     7.124915
H    -8.894183    -2.842838    -4.078698
O    -9.415640    -2.034889    -3.911562
H    -9.131963    -1.370610    -4.543391
H    -2.396734    -5.985042    -2.132971
O    -3.275516    -5.700038    -2.400920
H    -3.464709    -6.077405    -3.284904
H    -2.982299    -5.903386    -5.398925
O    -3.580150    -6.513075    -4.924340
H    -3.096589    -7.332182    -4.756516
H    -1.404021     3.724311    -6.992244
O    -0.860929     2.969785    -6.723308
H    -1.100442     2.183393    -7.270233
H    -0.219232     0.413347    -8.224185
O    -1.114238     0.648577    -7.937907
H    -1.286664     0.125921    -7.138677
H    -10.425555     4.044540    -2.717169
O    -10.490383     3.266456    -2.147986
H    -9.659443     3.241684    -1.641487
H     4.588249     4.140062     1.645955
O     4.377476     3.216370     1.922964
H     5.076489     2.653411     1.569569
H     6.479096     1.416507    -4.251942
O     6.186586     0.792836    -3.552029
H     6.217758     1.289841    -2.710733
H     9.674379    -2.278251    -1.132700
O     9.904574    -1.859354    -1.973425
H     9.034670    -1.637298    -2.377459
H     9.986812    -3.275490    -3.126482
O     9.714880    -3.933137    -3.790672
H     9.319595    -3.436119    -4.517600
H    -7.679460    -8.578070    -1.635489
O    -6.942969    -7.983112    -1.768683
H    -7.321730    -7.070511    -1.758778
H     4.149431     6.091207    -3.852486
O     4.810606     6.793007    -3.772369
H     5.648057     6.341172    -3.637410
H     0.104635    -8.169179    -5.210014
O     0.131135    -9.151703    -5.076832
H     0.278705    -9.516572    -5.949419
H    -2.317671    -8.670532    -2.702278
O    -2.086540    -8.408576    -3.613225
H    -1.440225    -9.027282    -3.971942
H     2.199899    -10.808869    -3.490999
O     2.154550    -9.854161    -3.471493
H     1.365879    -9.585742    -3.993990
H     6.825539     3.345874    -4.613263
O     6.882454     2.663494    -5.309536
H     6.087558     2.792944    -5.849695
H    -3.521562    -3.704145     7.730035
O    -3.644026    -2.918806     7.198150
H    -3.392015    -3.157775     6.279983
H    -0.642010    -3.363929    -6.724393
O    -0.012901    -2.631373    -6.736018
H    -0.495068    -1.856343    -6.393731
H     0.676181     0.486917     8.744453
O     0.682839    -0.227482     8.103737
H    -0.238236    -0.519438     8.018282
H    -5.846664     7.363597    -4.253765
O    -6.350116     6.743095    -4.812470
H    -6.634338     6.012616    -4.219234
H    -4.290664     9.103036    -3.272789
O    -4.824489     8.305977    -3.164221
H    -4.413665     7.828388    -2.425361
H    -9.722775     5.786681    -4.634330
O    -10.254298     4.981405    -4.467984
H    -11.136432     5.180541    -4.783628
H     2.798650     6.535721     6.109583
O     1.839403     6.632189     6.211665
H     1.494807     5.718156     6.114911
H     4.801810     8.565544     0.047128
O     5.128104     8.569174     0.964916
H     5.527726     7.701948     1.097789
H     4.152754    -7.417140    -4.349581
O     3.394565    -7.703648    -4.890756
H     3.114927    -8.543901    -4.512395
H     0.389967     8.676503     4.212663
O     1.069262     8.034270     3.982401
H     1.299597     7.541303     4.796015
H     5.231830     4.205054    -3.183690
O     6.193567     4.169437    -3.132658
H     6.402850     3.593757    -2.382436
H    -2.543546    -1.525134     7.574762
O    -2.035281    -0.730084     7.792409
H    -2.661325    -0.105005     8.167868
H    -9.040974     7.928154    -4.139652
O    -8.978970     7.343007    -4.896104
H    -8.022044     7.179928    -5.033518
H     3.560167    -8.963231     1.090823
O     2.879977    -8.332180     1.331116
H     3.350721    -7.525235     1.615479
H     3.588906     8.192717     1.800890
O     2.801853     7.625634     1.912975
H     2.355013     7.859672     2.739533
N     9.098607     1.515394     2.119983
H     8.809053     2.434213     2.130188
H     9.083034     1.245639     1.180370
