24
Coordinates from ORCA-job grain_mol_opt.QMRegion
  H   -1.61460122634229      4.48731374515499      7.74065051141819
  O   -0.77308120703644      4.62038407505568      8.24099066155029
  H   -0.52075558910633      5.56591127794794      8.16426686899962
  H   -3.83011038787940      4.61154473053481      7.84953524346773
  O   -3.22604714908007      4.22911544664503      7.17001710697027
  H   -3.43331046358205      3.27822890644956      7.20392163814862
  H   -1.72779385977228      4.76813228931618      9.84735411689501
  O   -2.35047753345695      4.68930644600902     10.59780969405992
  H   -2.58245794630092      5.61095865651981     10.82894711441569
  H   -4.02482862367312      4.61698817967298      9.84172540695438
  O   -4.76360645513944      4.92926939555583      9.27242717918819
  H   -5.38969715003579      4.18847014422728      9.20806134153611
  H   -2.02355616909254      9.72568201689926      8.79897108517241
  O   -2.21260189283832      8.79667137816628      8.63587978628422
  H   -1.33859967476549      8.38763656046652      8.45674783513046
  H   -3.28469851696622      8.70233072707145      6.82225979364797
  O   -3.70294459264799      8.77299664917303      5.95139949844514
  H   -3.87658511461222      7.85392645308655      5.68353317120579
  H   0.79929292283523      7.22446645539397      7.57196632281434
  O   -0.12755375059039      7.20539970382677      7.87181312372576
  H   -0.60833298653498      7.12004519315846      6.99644851724252
  O   -3.45427424447322      7.23150780092038     10.70329160908675
  H   -3.03674686618969      7.82229265105707     10.04965962339848
  H   -4.24399616214490      6.90075164259697     10.25451298926687
