21

H     5.699201    -5.327018     4.619213
O     5.124562    -5.183939     5.402094
H     4.389092    -5.803241     5.309428
H     6.450662    -5.931404     0.625568
O     6.112918    -6.657646     1.197126
H     5.204578    -6.376954     1.423308
H     7.276820    -2.563042     4.156604
O     7.740267    -2.718285     3.311526
H     7.425017    -3.615073     3.073609
H     6.774977    -5.939148     2.626871
O     6.984070    -5.368355     3.398651
H     7.819550    -5.727673     3.783210
H     6.412606    -2.282854     6.437153
O     7.006838    -2.917639     6.021249
H     6.501840    -3.745741     6.041246
H     9.234821    -3.117251     4.243343
O     9.864534    -3.435242     4.930616
H     9.390677    -3.232043     5.746415
N     9.353996    -6.065851     4.521385
H     10.014583    -6.421033     3.919956
H     9.654064    -5.139922     4.712978
