42

H    -0.376029     6.885107    -2.235481
O    -1.134376     7.286516    -2.734901
H    -1.907414     7.169266    -2.134631
H    -0.994882     4.472749    -3.848537
O    -1.653770     5.108335    -4.178916
H    -1.445693     5.952869    -3.724298
H     0.700494     3.247593    -2.571218
O     0.674361     3.648133    -3.477688
H     0.660569     2.857117    -4.031197
H    -1.199670     1.471641    -3.878246
O    -1.806398     2.138821    -4.262935
H    -1.503669     2.357828    -5.166162
H     2.222192     5.825362    -1.165849
O     3.150371     5.523426    -1.018454
H     3.346013     4.913412    -1.753504
H     3.432247     3.383068    -3.529450
O     3.354748     4.370017    -3.466179
H     2.391979     4.464904    -3.530305
H     1.340229     1.579985    -5.839275
O     1.172009     1.007775    -5.058704
H     1.553867     0.147506    -5.343571
H    -1.345659     5.895524    -7.112155
O    -2.007956     5.303431    -6.745352
H    -1.791212     5.278494    -5.764452
H     2.651971     1.414956    -4.076753
O     3.524884     1.786336    -3.844584
H     3.836740     1.284141    -3.054721
H     0.730820     2.912805    -7.155646
O     1.690620     2.684640    -7.217091
H     1.720799     1.922783    -7.832053
H     3.516159     2.912253    -6.655063
O     4.349581     2.631371    -6.257433
H     4.107657     2.292907    -5.368124
H    -1.415807     3.705304    -6.970196
O    -0.925954     2.883449    -6.714109
H    -1.174160     2.137903    -7.312422
H     4.368256     6.279743    -3.938902
O     5.059757     6.918022    -3.717594
H     5.780472     6.350570    -3.414455
N     1.024490     5.756677    -6.132976
H     1.599512     5.130207    -6.584965
H     0.719855     5.273516    -5.356022
