39
Coordinates from ORCA-job grain_mol_opt.QMRegion
  H   -3.77997035405612      0.04486417349261      4.87835661194953
  O   -4.37018065562487      0.50137921360618      5.53422765847108
  H   -5.06857061808727     -0.14077289579551      5.73775136754375
  H   -4.03406991391787      1.26717016810496      7.00435139446974
  O   -3.91144182292443      1.93934898658812      7.71952135623043
  H   -4.82096744196578      2.25132239835399      7.95269177546178
  H   -3.88776203952928      4.96097080056764      7.77482973880263
  O   -3.31848485825748      4.51661033591239      7.10536573862010
  H   -3.54939989550867      3.56807164138497      7.15941599686354
  H   -0.61874578611997      2.16805706560401      7.64514114393941
  O   -1.22635717682803      2.00404053606791      6.90500366355563
  H   -2.07071946986831      1.78369666850417      7.31037103216870
  H   -2.70307689466197      3.07153388361536     10.45086123705559
  O   -2.52257620124050      2.16090112189084     10.15067423069037
  H   -2.99818714085119      2.09095288434893      9.29764655878865
  H   -0.15250402829060      3.43980971085087      8.99136625346835
  O   0.13210117934607      2.53917519506778      9.26275576871941
  H   -0.64129212859985      2.22938304771790      9.76926927256009
  H   -6.44926732079918      3.44047963393056      7.32670447301867
  O   -6.27146163727573      3.03162013701607      8.21243748231275
  H   -6.84186190793241      2.25522639118360      8.28809997823910
  H   -6.52010846792300     -0.42435613277445      7.78661031997036
  O   -6.61031117025651      0.11744774829932      8.59672649980932
  H   -7.30613699409896     -0.32443498654260      9.09238976456795
  H   -5.21698850794234     -2.08911751932292      6.83242713043549
  O   -5.97712999442600     -1.58149327567327      6.48115013239951
  H   -6.04144848968439     -1.90603410504899      5.55668956801286
  H   -3.59103352471996     -3.76793726184805      7.63143905933558
  O   -3.60155965291995     -2.96754678476021      7.09910399537549
  H   -3.39040532725487     -3.26618612801571      6.18459094061571
  H   0.71841884118872      0.50975396746787      8.41003043241011
  O   0.73882952459346     -0.43495598642344      8.22685107010050
  H   -0.20767700280881     -0.67215667754967      8.17580306754534
  H   -2.40785050061921     -1.53313505710187      7.58427740766147
  O   -2.04395327383907     -0.73748030605948      7.99923281676029
  H   -2.63692556511641     -0.61646575277426      8.76629701952323
  O   -3.92885277849320     -0.39101927484403     10.09427560221969
  H   -3.61077680407077      0.45093841784975     10.45846327072129
  H   -4.75420523841798     -0.16207144460533      9.63926829812300
