603

H     0.214321     3.035118    -0.665148
O     0.741422     2.368422    -1.155947
H     1.678452     2.499416    -0.877938
H    -0.067347    -1.299201     3.168754
O     0.324455    -0.597744     2.625724
H    -0.157254     0.214085     2.856164
H    -2.384487     2.408097    -0.532899
O    -2.175879     1.939556     0.292695
H    -2.188562     0.991200     0.069113
H    -4.655154     0.542711     2.178164
O    -4.970349    -0.391229     2.191179
H    -4.461471    -0.868924     1.527856
H     0.077983    -0.303586     0.969096
O    -0.117707    -0.066849     0.041787
H     0.222096     0.829551    -0.078089
H    -0.143802    -3.568354     3.798138
O    -0.426209    -2.738402     4.216911
H     0.216921    -2.566597     4.921117
H    -4.880135     2.524685     1.322699
O    -4.242119     2.117938     1.940765
H    -3.397345     2.101195     1.431273
H    -3.230936     3.891430    -2.214158
O    -2.492374     3.297207    -1.979353
H    -2.130096     3.008380    -2.837104
H    -0.100347    -3.801247     0.525187
O     0.234649    -2.981404     0.942709
H    -0.555453    -2.497411     1.250904
H    -2.367131    -1.536804     2.478506
O    -2.174117    -2.003419     1.638994
H    -2.429687    -1.417598     0.907486
H     2.094720    -1.435214    -1.093275
O     2.319672    -1.680271    -0.172297
H     1.532203    -2.114991     0.206990
H    -1.385773     1.827962     1.919957
O    -1.480202     1.431613     2.796287
H    -1.469963     2.144793     3.460342
H     0.239666    -2.700892    -1.549792
O    -0.516870    -2.090589    -1.607724
H    -0.342147    -1.363948    -0.972994
H    -3.410102    -2.929333    -0.384894
O    -2.690442    -3.420378    -0.802582
H    -1.980198    -2.789008    -1.018312
H     2.776748     0.142976     2.961844
O     2.873113    -0.037080     3.924234
H     2.959593     0.856571     4.327642
H    -3.524569     6.375175    -0.550231
O    -3.284734     7.037641    -1.250163
H    -3.147222     7.883557    -0.780151
H     3.913116     0.597562     1.216810
O     2.962582     0.416549     1.330064
H     2.727172    -0.338372     0.752334
H    -5.758980     0.830760    -1.613410
O    -4.849937     1.160801    -1.484272
H    -4.965050     1.989452    -0.974065
H    -1.216676     5.401303     2.214746
O    -1.839177     4.652554     2.096030
H    -1.919953     4.234457     2.958563
H     3.501597     2.775081     0.452540
O     3.260225     2.731624    -0.488213
H     3.593829     1.887953    -0.835396
H     1.537865    -4.691682    -2.224453
O     1.594066    -3.911413    -1.653720
H     2.392679    -3.451184    -1.994389
H    -0.892604    -0.087624    -2.535859
O    -0.259457     0.566912    -2.857980
H    -0.003909     1.150238    -2.120289
H     1.728489    -4.677837    -0.150235
O     1.830372    -5.312237     0.594939
H     1.374045    -6.126788     0.296720
H    -1.188701    -3.269987    -2.863692
O    -1.010610    -3.952543    -3.523884
H    -0.882519    -4.799400    -3.054595
H    -2.790903     3.312459     4.704800
O    -1.809473     3.312933     4.675097
H    -1.519191     2.912234     5.512753
H     0.950101     5.046357     4.089849
O     0.003334     5.276607     4.137446
H    -0.468074     4.472714     4.394318
H    -1.701161    -4.651905    -0.356164
O    -0.935421    -5.189046    -0.066624
H    -1.282513    -5.877225     0.510315
H    -3.903299     5.823703    -2.606063
O    -4.250846     4.988391    -2.936091
H    -4.091900     4.952434    -3.903574
H    -2.412180    -3.689236     1.947449
O    -2.430303    -4.592524     2.325173
H    -1.490355    -4.828843     2.468917
H    -4.658326    -2.991261    -2.897510
O    -3.803928    -3.221870    -3.300591
H    -3.472292    -4.014358    -2.833550
H     0.334354     1.387824     4.630507
O     0.839668     2.149157     4.298187
H     0.883481     2.808835     5.004652
H    -4.618299    -5.179068    -1.567003
O    -5.323629    -4.826725    -0.996691
H    -5.113107    -5.179522    -0.111241
H     2.372414    -6.480675    -4.003702
O     2.031157    -6.150788    -3.151638
H     2.469547    -6.720532    -2.487172
H     0.511204    -3.379381    -3.981389
O     1.313292    -3.007174    -4.401159
H     0.995531    -2.642270    -5.253062
H     1.972254    -1.741065     3.008349
O     2.131303    -2.671611     2.793144
H     1.449034    -2.888573     2.123779
H    -2.979380    -1.816864    -3.203388
O    -2.560179    -0.928846    -3.138148
H    -3.216368    -0.285820    -3.461213
H    -3.189642     4.973584     1.076032
O    -3.970108     5.345038     0.617818
H    -4.389662     5.902481     1.321667
H     0.876610     2.263124     2.607923
O     0.982440     2.258376     1.637215
H     1.710801     1.635686     1.477013
H     0.196932     5.660229    -0.748986
O     0.719568     6.322827    -1.256098
H     0.856603     7.123655    -0.700680
H     0.332822     7.044457     2.599191
O    -0.024765     6.662523     1.780522
H     0.641435     5.992598     1.523016
H    -2.477243     0.218012     3.347050
O    -2.699311    -0.595595     3.852447
H    -1.940817    -0.633074     4.476741
H    -0.902802     0.563352     6.037456
O    -0.624110     0.044649     5.264298
H     0.089404    -0.557483     5.554213
H     0.730512    -4.986705     2.006057
O     0.184583    -5.095966     2.808338
H     0.331351    -6.015685     3.082638
H    -2.083806    -8.088553     0.466797
O    -1.766648    -7.598564     1.252899
H    -2.555817    -7.288987     1.704994
H    -0.369247     6.863961    -2.319618
O    -1.114546     7.281773    -2.822253
H    -1.906602     7.153971    -2.261787
H    -1.109111     4.311979     0.579785
O    -0.732700     4.373356    -0.314827
H    -1.435970     4.128120    -0.949776
H    -4.413259     2.745406     3.501679
O    -4.416108     2.917180     4.466054
H    -4.498902     2.034398     4.875944
H     2.033193    -3.568828     4.273030
O     1.964860    -4.038342     5.127525
H     2.469267    -3.500539     5.758984
H     4.727246    -3.182137     0.860288
O     4.548419    -3.093912    -0.099241
H     3.685319    -2.624896    -0.168136
H    -2.697903    -0.752616    -1.345508
O    -3.029598    -0.481555    -0.473019
H    -3.830736     0.041456    -0.684093
H    -1.579205    -0.767108    -4.620830
O    -1.069864    -0.549353    -5.422814
H    -0.361964     0.047649    -5.134345
H     1.829121    -1.712777    -3.351502
O     1.919866    -0.963454    -2.730500
H     1.140877    -0.389230    -2.863925
H     3.681515    -3.106792     2.580497
O     4.641650    -3.330707     2.517841
H     4.698368    -4.291255     2.640415
H     3.448372    -6.104795     3.160227
O     3.805069    -5.903611     2.261390
H     3.067725    -5.560574     1.717416
H    -3.313467     1.602033    -4.177165
O    -4.158472     1.130399    -3.989706
H    -4.379913     1.275877    -3.033889
H    -5.075769     4.140060     0.056351
O    -5.511723     3.272797    -0.047394
H    -6.441293     3.389125    -0.333089
H     6.755926    -1.175485    -1.312415
O     5.974286    -1.024525    -0.777002
H     5.561672    -1.896010    -0.562534
H     4.642614    -3.181090    -2.403198
O     3.790939    -2.989146    -2.839911
H     3.794007    -3.611597    -3.595432
H     4.435452    -2.272408     5.657572
O     4.092310    -2.736775     6.451220
H     4.427533    -3.641883     6.370618
H    -0.772731     6.346858     5.079918
O    -1.372757     6.922174     5.614872
H    -1.386649     7.798506     5.172030
H     4.717845    -0.127093    -1.430193
O     3.954172     0.417400    -1.699945
H     3.262198    -0.184636    -2.029194
H    -0.719740     4.520455    -4.029930
O    -1.502616     5.061574    -4.242272
H    -1.355237     5.929031    -3.820042
H     0.679698     3.206113    -2.643521
O     0.690807     3.581777    -3.552581
H     0.740768     2.817331    -4.136613
H    -5.361374    -5.199631     1.795857
O    -4.662044    -5.793031     1.443909
H    -3.823311    -5.375282     1.717538
H     7.862094    -1.670896    -4.020463
O     7.617255    -1.371723    -3.116956
H     7.129237    -0.518852    -3.271290
H     3.758162    -5.068067    -5.250304
O     4.508394    -4.684163    -4.760798
H     4.905131    -5.399655    -4.223658
H    -3.787265     0.020234     4.935823
O    -4.391643     0.483722     5.565582
H    -5.051427    -0.175702     5.855402
H     3.494361    -5.911038    -0.468134
O     4.370780    -5.678020    -0.785417
H     4.478476    -4.718786    -0.636255
H     5.037612    -0.329089    -4.119381
O     4.504411    -1.040391    -4.511702
H     4.179577    -1.626475    -3.794539
H    -1.143928     1.567461    -3.926908
O    -1.793483     2.186962    -4.316065
H    -1.433272     2.517462    -5.161620
H     4.836104    -6.307714    -2.263623
O     5.146398    -6.659984    -3.127470
H     6.015136    -7.047751    -2.960352
H     8.525377    -5.016352    -3.973345
O     7.687083    -5.488315    -3.815471
H     7.887002    -6.236821    -3.235150
H     2.341741     4.729230     0.470505
O     1.760016     4.711437     1.239725
H     1.404122     3.790376     1.317699
H    -4.409415    -2.635280     4.233479
O    -5.303406    -2.297728     4.027520
H    -5.166040    -1.517334     3.451160
H    -5.827292    -3.203443     1.314697
O    -6.291912    -3.760220     1.981996
H    -6.107348    -3.323443     2.832685
H     1.667243     3.485929     6.880802
O     1.045576     3.999828     6.343858
H     0.259671     4.151413     6.911850
H     5.007180    -2.150513     3.654564
O     5.025280    -1.429184     4.316752
H     4.211941    -0.876365     4.157121
H     2.399561    -5.561739     4.872445
O     2.784104    -6.444532     4.617474
H     2.042224    -7.028075     4.436759
H     2.309253    -4.516599    -6.759801
O     2.135408    -5.004440    -5.945262
H     1.873300    -4.314305    -5.289223
H     6.861799    -4.236797    -0.883134
O     7.327114    -4.511065    -0.050893
H     8.208894    -4.797886    -0.365938
H    -1.750185     4.500532     7.704068
O    -0.853103     4.601714     8.092915
H    -0.674839     5.561333     8.116565
H    -5.092966     5.678183    -5.608656
O    -4.483313     4.916258    -5.625357
H    -3.724459     5.131564    -6.188805
H     3.342818    -2.527535    -8.401865
O     3.250430    -3.057881    -7.599780
H     4.124986    -3.038570    -7.166884
H    -0.655378     8.826270    -2.277278
O    -0.536013     9.656091    -1.759637
H     0.224061     9.484167    -1.179280
H     2.064090    -0.896911     5.237071
O     1.489792    -1.422267     5.823433
H     1.580095    -1.075731     6.720470
H     5.250395    -2.024861    -5.648676
O     5.607389    -2.787698    -6.167098
H     5.337912    -3.581676    -5.649240
H     5.706384    -5.192944     4.728101
O     5.182511    -5.105715     5.553503
H     4.462263    -5.739232     5.467665
H    -3.988498     1.150911     7.005722
O    -3.800916     1.628676     7.849566
H    -4.679020     2.012340     8.106333
H    -1.854504     9.613803    -0.750801
O    -2.716355     9.486180    -0.279344
H    -3.327755     10.112125    -0.670958
H    -5.931431     4.675712    -2.952806
O    -6.838329     4.554264    -3.300771
H    -6.743434     3.850781    -3.976179
H     0.131583    -7.062542    -1.116327
O     0.592396    -7.495456    -0.364947
H    -0.089381    -7.691216     0.280733
H    -7.622229     3.774711    -1.993537
O    -7.885159     3.188458    -1.253495
H    -7.738573     2.279454    -1.590845
H     3.963094    -0.870067     7.019539
O     3.970200     0.094171     7.010004
H     4.783336     0.384898     6.580681
H     2.265462     5.803852    -1.162526
O     3.201702     5.514184    -1.045161
H     3.381888     4.972517    -1.836465
H     6.502652    -5.925599     0.690246
O     6.183466    -6.642826     1.283267
H     5.276850    -6.368362     1.525037
H    -3.894624     4.735593     7.774727
O    -3.324092     4.273340     7.118758
H    -3.515605     3.329552     7.229708
H     5.805676    -7.913177     0.192119
O     5.545578    -8.590166    -0.466336
H     4.707799    -8.282262    -0.855842
H    -0.576813     2.055522     7.704397
O    -1.207078     1.989283     6.966996
H    -2.076689     1.845391     7.360242
H    -6.370282    -0.130754     1.053446
O    -6.687259    -0.215170     0.139482
H    -7.605048    -0.489327     0.154508
H    -5.345748    -3.073516    -0.588297
O    -5.098551    -2.369172     0.037187
H    -5.669568    -1.598232    -0.154771
H     4.318316     5.592570     0.345115
O     4.649784     5.695429     1.251019
H     3.952415     6.204104     1.700747
H    -9.014960    -1.764979    -2.269862
O    -8.470928    -1.560718    -1.481911
H    -8.598423    -2.297034    -0.843800
H    -5.494696     3.454332    -5.538311
O    -6.012143     2.743405    -5.124274
H    -5.345877     2.159933    -4.707005
H     3.221427    -0.886922    -5.622738
O     2.369175    -1.006352    -6.094887
H     2.456536    -1.857628    -6.564220
H     8.125231    -1.303750    -6.010381
O     8.160121    -2.165807    -5.548121
H     7.311503    -2.595763    -5.781359
H     7.652457     1.012554    -6.267290
O     7.470673     0.165872    -6.687255
H     6.488666     0.107843    -6.725137
H    -7.839582    -3.704934     0.920680
O    -8.515727    -3.600805     0.233604
H    -8.412986    -4.360829    -0.366657
H    -2.417080     8.737609     1.286759
O    -2.267589     8.150729     2.041341
H    -1.495439     7.598949     1.822185
H    -4.456925     6.434922     3.486074
O    -4.624781     6.859360     2.628323
H    -3.862183     7.446840     2.490853
H     3.423134     3.452244    -3.552747
O     3.267574     4.421419    -3.461859
H     2.302788     4.483534    -3.572973
H    -6.082510    -1.620512    -3.447299
O    -6.167181    -2.198446    -2.662594
H    -6.953941    -1.892401    -2.157695
H     6.461852     1.075895     4.779747
O     6.065454     1.615740     5.480460
H     6.251512     2.534235     5.187661
H     1.396808     1.720646    -5.803491
O     1.202233     1.126337    -5.048236
H     1.567191     0.262912    -5.315418
H    -2.521947     2.977725     10.485871
O    -2.306375     2.070214     10.214981
H    -2.900531     1.867847     9.480439
H     7.631293    -0.473440     3.136733
O     6.879078     0.101837     3.295382
H     6.184859    -0.498717     3.673135
H    -5.621714    -8.063936    -0.694049
O    -4.889925    -8.130354    -0.044096
H    -4.896917    -7.311897     0.475956
H    -5.142914    -0.133047    -4.718952
O    -5.757449    -0.846560    -4.960005
H    -6.595888    -0.407290    -5.162013
H     1.935399    -0.201202    -7.491029
O     1.736556     0.269786    -8.336161
H     2.315009    -0.136477    -8.986977
H     4.927510    -1.393845    -9.267241
O     4.004182    -1.162884    -9.552905
H     3.985251    -1.286428    -10.501257
H     7.563976    -2.544628     4.259868
O     7.714512    -2.587316     3.301158
H     7.223776    -3.382767     3.034163
H     6.746628    -5.854132     2.711380
O     6.800037    -5.195598     3.431393
H     7.672321    -5.287202     3.853557
H    -1.839775     8.953369     3.492608
O    -1.596235     9.260188     4.391384
H    -2.447110     9.391064     4.843460
H    -7.357509     1.547413    -5.265415
O    -7.931519     0.802245    -5.021634
H    -8.834487     1.199656    -4.949747
H     6.973212    -1.078409    -8.360794
O     6.396748    -1.804202    -8.622530
H     6.167147    -2.253158    -7.790021
H    -1.647990     6.231647    -7.021913
O    -2.044728     5.405620    -6.749010
H    -1.799888     5.276579    -5.784214
H    -0.027041     3.329460     9.034625
O     0.171588     2.410800     9.292438
H    -0.628270     2.145237     9.795737
H     6.709910    -2.840592    -2.667711
O     6.302186    -3.672661    -2.353400
H     6.636776    -4.360071    -2.972130
H    -4.035389    -3.085323    -4.938284
O    -4.186799    -2.973968    -5.903718
H    -4.736086    -2.182548    -5.962499
H     1.957085     2.205742     8.486113
O     2.623631     2.318707     7.798711
H     3.047911     1.449069     7.686194
H    -6.874335    -5.215109    -1.397764
O    -7.788608    -5.486600    -1.646264
H    -7.919504    -5.086075    -2.530521
H    -3.846360     5.260970     5.690477
O    -3.813024     6.028738     5.098816
H    -2.880091     6.325228     5.196070
H    -7.861738     0.071457    -1.980362
O    -7.372477     0.795817    -2.393233
H    -7.596756     0.782332    -3.347360
H     5.847986     0.140504     0.450194
O     5.629612     0.868485     1.065084
H     6.132583     0.674563     1.882814
H    -6.236411     3.313237     7.383353
O    -6.110675     2.796796     8.213438
H    -6.708528     2.033693     8.123899
H     2.312723    -8.067303    -0.802812
O     2.995549    -8.052297    -1.492518
H     2.779440    -8.765843    -2.108806
H    -2.695969    -3.971748    -6.184793
O    -1.941394    -4.535379    -5.950215
H    -1.669000    -4.243397    -5.051954
H    -5.657753     3.761530     5.298026
O    -6.310063     4.157791     5.912063
H    -6.148508     5.102163     5.897634
H    -0.972591    -7.116013    -3.140890
O    -0.506049    -6.444274    -2.610378
H     0.405441    -6.375099    -2.984128
H     4.435009     2.039558     5.160936
O     3.493849     2.277955     5.036424
H     3.105300     2.293205     5.916474
H     4.089033     4.681162     6.326984
O     4.172166     5.409948     5.707577
H     3.607287     5.167487     4.935221
H     2.755849     3.635131     3.945330
O     2.577900     4.574692     3.776678
H     2.461107     4.670936     2.809690
H     9.418503     0.229903    -1.008948
O     8.605290     0.398727    -0.532720
H     8.408572    -0.406355    -0.024364
H    -2.139551     5.338236     10.651010
O    -2.860861     4.708303     10.880670
H    -3.083203     4.886537     11.794687
H     7.825511    -2.922551     0.467210
O     8.272392    -2.082076     0.730707
H     8.231828    -2.100844     1.699106
H     5.363520     3.687506     3.557677
O     6.017905     3.956543     4.224347
H     5.600641     4.672691     4.725195
H    -4.243678     5.033654     9.777422
O    -4.874399     5.182098     9.052829
H    -5.484306     4.431871     9.048968
H    -6.973502    -3.494904    -3.490146
O    -7.591065    -4.108477    -3.940216
H    -7.066040    -4.550794    -4.639408
H    -0.013475     6.151490     10.778156
O    -0.877700     6.481028     10.527175
H    -0.759546     6.910040     9.660407
H     2.619019     1.500830    -4.081925
O     3.496787     1.853816    -3.840052
H     3.810929     1.340792    -3.065380
H    -6.984413    -0.217618     7.209978
O    -7.496075     0.560078     7.487073
H    -8.116877     0.740717     6.780157
H    -2.700037    -9.876411    -0.807143
O    -2.639355    -8.934750    -0.967755
H    -3.547033    -8.570577    -0.731700
H    -10.041046     3.050611    -4.924891
O    -10.157374     2.133307    -4.643370
H    -10.376726     2.218118    -3.694540
H    -2.062805    -3.016934     4.627872
O    -2.937394    -3.458241     4.694910
H    -2.926682    -4.077653     3.939832
H    -0.151305    -7.974651     2.513224
O     0.671560    -7.760806     2.965847
H     1.394450    -8.054759     2.383453
H     6.696203    -2.347567     6.443732
O     7.153223    -3.053711     5.982088
H     6.527656    -3.792227     5.937557
H    -5.278862    -1.998756     6.943520
O    -5.954550    -1.502940     6.456384
H    -5.933815    -1.881274     5.547766
H     0.873200     3.028280    -7.098878
O     1.792022     2.700044    -7.151938
H     1.781488     1.950765    -7.775799
H    -3.985486     8.764091     6.660101
O    -3.979542     8.760438     5.702754
H    -4.101726     7.832170     5.436046
H    -2.056936     10.310213    -2.745147
O    -2.957894     10.489474    -3.050411
H    -2.885044     11.122052    -3.764419
H     9.419018    -4.034928     4.102877
O     9.141141    -4.707686     4.731857
H     8.705095    -4.231185     5.449157
H    -0.682915    -6.002366    -5.818107
O     0.018023    -6.568331    -5.478812
H     0.855345    -6.107985    -5.692386
H     1.819357     8.285729     0.674988
O     1.518957     8.605767    -0.204184
H     2.335492     8.644530    -0.731643
H     3.533382     2.931316    -6.637090
O     4.360115     2.643904    -6.223813
H     4.111065     2.371326    -5.315552
H     3.736925     7.136663    -1.210640
O     3.942209     8.072446    -1.424655
H     4.313968     8.015863    -2.316827
H     4.441336    -0.007992    -7.875988
O     4.819022     0.144660    -7.007831
H     4.628811     1.075584    -6.766354
H     6.040362     1.950061    -0.437481
O     6.607341     2.148867    -1.197042
H     7.434177     1.676799    -1.000277
H     6.718962    -8.260830    -1.492897
O     7.361960    -7.958515    -2.198957
H     7.518243    -8.744347    -2.728253
H    -5.251791    -5.803802    -5.401305
O    -5.869563    -5.133754    -5.719265
H    -5.319173    -4.364780    -5.955328
H     0.652325     7.193204     7.608841
O    -0.250586     7.219676     7.964917
H    -0.803065     7.231364     7.145316
H    -8.859563    -2.855237    -4.114283
O    -9.382695    -2.047608    -3.950564
H    -9.095432    -1.383323    -4.580768
H    -2.372067    -5.991289    -2.127129
O    -3.250305    -5.707497    -2.398626
H    -3.433449    -6.084502    -3.284240
H    -2.936247    -5.910617    -5.394163
O    -3.537567    -6.520154    -4.923607
H    -3.054612    -7.339045    -4.752382
H    -1.356158     3.717361    -6.977368
O    -0.814519     2.963731    -6.703419
H    -1.047955     2.176727    -7.252354
H    -0.158394     0.408545    -8.200321
O    -1.055678     0.643208    -7.920471
H    -1.233211     0.120114    -7.122656
H    -10.405916     4.030832    -2.763771
O    -10.474039     3.253114    -2.194446
H    -9.646326     3.228976    -1.682727
H     4.579737     4.098757     1.748293
O     4.373228     3.177701     2.027892
H     5.091059     2.603021     1.749559
H     6.520664     1.396621    -4.173415
O     6.232882     0.767980    -3.477312
H     6.238416     1.273289    -2.639151
H     9.528605    -2.074155    -0.660856
O     9.879360    -2.078561    -1.576510
H     9.128216    -1.748270    -2.108513
H     10.184367    -3.269417    -3.614644
O     9.900527    -3.831436    -4.346840
H     9.411045    -3.226581    -4.933923
H    -7.657382    -8.589219    -1.664011
O    -6.920535    -7.993365    -1.790940
H    -7.300142    -7.081219    -1.783937
H     4.176029     6.089915    -3.798302
O     4.835668     6.792505    -3.712813
H     5.672143     6.340526    -3.570867
H     0.151571    -8.174336    -5.183860
O     0.172807    -9.157221    -5.051715
H     0.335255    -9.520488    -5.922327
H    -2.285807    -8.678198    -2.693765
O    -2.052983    -8.415348    -3.603634
H    -1.401602    -9.030352    -3.960107
H     2.234745    -10.815068    -3.453046
O     2.179655    -9.861348    -3.422456
H     1.398403    -9.592716    -3.955233
H     6.860697     3.339323    -4.535589
O     6.923575     2.658707    -5.233840
H     6.132640     2.790476    -5.778817
H    -3.569495    -3.712615     7.730122
O    -3.683716    -2.925812     7.198563
H    -3.428410    -3.165672     6.281465
H    -0.587067    -3.369812    -6.703567
O     0.039832    -2.635378    -6.711090
H    -0.446186    -1.861693    -6.371756
H     0.621741     0.482849     8.771812
O     0.634074    -0.232740     8.132240
H    -0.286880    -0.524652     8.041185
H    -5.819516     7.353696    -4.268834
O    -6.318831     6.732894    -4.830890
H    -6.606169     6.001987    -4.239739
H    -4.271616     9.094294    -3.277607
O    -4.805906     8.297121    -3.172132
H    -4.399226     7.819561    -2.430996
H    -9.691577     5.773550    -4.675720
O    -10.223686     4.967963    -4.512701
H    -11.103549     5.166101    -4.835240
H     2.745783     6.537865     6.156733
O     1.785163     6.632304     6.250824
H     1.444000     5.717913     6.149063
H     4.798896     8.564109     0.105069
O     5.114116     8.567623     1.026740
H     5.520642     7.703671     1.161118
H     4.154427    -7.415837    -4.325639
O     3.400569    -7.713794    -4.868372
H     3.132443    -8.552076    -4.478377
H     0.356236     8.673307     4.238132
O     1.036938     8.030472     4.013816
H     1.260996     7.539082     4.830042
H     5.252735     4.205210    -3.130236
O     6.214093     4.175140    -3.073590
H     6.419075     3.597492    -2.321823
H    -2.587329    -1.532578     7.582687
O    -2.080172    -0.737526     7.803660
H    -2.709328    -0.112522     8.174265
H    -9.014841     7.915634    -4.176800
O    -8.947338     7.330326    -4.932650
H    -7.989349     7.168015    -5.063624
H     3.561953    -8.962991     1.129977
O     2.885866    -8.333850     1.386451
H     3.360326    -7.525732     1.659397
H     3.573761     8.189578     1.847110
O     2.784721     7.623765     1.956847
H     2.333998     7.859619     2.780544
N     9.909568    -4.840972    -0.995109
H     10.149017    -5.434578    -1.711391
H     10.006926    -3.938793    -1.362765
