603

H     0.214093     3.014348    -0.668634
O     0.735580     2.344145    -1.160780
H     1.674201     2.469229    -0.884879
H    -0.088283    -1.323613     3.159297
O     0.308136    -0.624672     2.616433
H    -0.167377     0.190504     2.848402
H    -2.387919     2.403989    -0.532078
O    -2.180749     1.932253     0.292111
H    -2.200608     0.984546     0.066764
H    -4.665665     0.548686     2.180105
O    -4.986400    -0.383464     2.192260
H    -4.482085    -0.862884     1.526753
H     0.060657    -0.325294     0.960737
O    -0.133350    -0.087757     0.033361
H     0.209091     0.807867    -0.085935
H    -0.177089    -3.593974     3.785663
O    -0.453297    -2.762600     4.205457
H     0.191630    -2.595418     4.909114
H    -4.879516     2.533332     1.328246
O    -4.243027     2.121037     1.944278
H    -3.399241     2.100287     1.433372
H    -3.228512     3.895309    -2.209440
O    -2.493790     3.295342    -1.977042
H    -2.134480     3.006465    -2.835996
H    -0.141582    -3.820782     0.510928
O     0.200851    -3.004687     0.929511
H    -0.585257    -2.515221     1.239836
H    -2.389618    -1.546089     2.472530
O    -2.200338    -2.012600     1.631932
H    -2.454870    -1.424353     0.901964
H     2.069435    -1.467709    -1.107935
O     2.298383    -1.722028    -0.190202
H     1.506468    -2.146253     0.191861
H    -1.388326     1.813339     1.917867
O    -1.483285     1.415641     2.793548
H    -1.467823     2.127687     3.458855
H     0.200961    -2.719977    -1.561473
O    -0.551927    -2.105178    -1.617814
H    -0.371156    -1.379766    -0.983209
H    -3.447764    -2.928096    -0.391187
O    -2.731296    -3.422822    -0.810248
H    -2.018353    -2.794745    -1.026831
H     2.766433     0.099898     2.949032
O     2.864819    -0.083455     3.910719
H     2.957076     0.809304     4.315868
H    -3.503275     6.378159    -0.540726
O    -3.260648     7.040012    -1.240168
H    -3.116626     7.884404    -0.769264
H     3.900517     0.551727     1.203089
O     2.949306     0.372989     1.317708
H     2.710277    -0.377908     0.737069
H    -5.774761     0.849876    -1.608983
O    -4.863309     1.173523    -1.480579
H    -4.972183     2.002320    -0.969124
H    -1.196058     5.385099     2.217580
O    -1.823500     4.640293     2.099178
H    -1.905106     4.221792     2.961419
H     3.502817     2.732637     0.442536
O     3.256970     2.690985    -0.497233
H     3.586939     1.847182    -0.847196
H     1.477093    -4.718642    -2.240335
O     1.543490    -3.941916    -1.666727
H     2.340539    -3.483605    -2.015931
H    -0.916849    -0.096881    -2.541851
O    -0.279213     0.553011    -2.864307
H    -0.018329     1.134291    -2.126687
H     1.680402    -4.708806    -0.168427
O     1.784020    -5.346800     0.573901
H     1.317418    -6.155829     0.276992
H    -1.233674    -3.276283    -2.875346
O    -1.060996    -3.960183    -3.535788
H    -0.939404    -4.807747    -3.066703
H    -2.778720     3.302175     4.707730
O    -1.797403     3.295527     4.675894
H    -1.508122     2.892443     5.512748
H     0.971950     5.013339     4.088119
O     0.026660     5.249160     4.138136
H    -0.449020     4.447798     4.394818
H    -1.748464    -4.660029    -0.368279
O    -0.986049    -5.204011    -0.082023
H    -1.337581    -5.889460     0.495534
H    -3.889437     5.832360    -2.596759
O    -4.242717     4.999759    -2.927640
H    -4.085778     4.964665    -3.895486
H    -2.450135    -3.696565     1.938077
O    -2.473037    -4.600894     2.313319
H    -1.534590    -4.842787     2.456166
H    -4.701375    -2.976413    -2.901800
O    -3.849072    -3.212618    -3.306308
H    -3.522276    -4.007558    -2.840374
H     0.333595     1.357971     4.624524
O     0.844038     2.115737     4.292263
H     0.893265     2.774699     4.999147
H    -4.672676    -5.167420    -1.574469
O    -5.374386    -4.811406    -1.002206
H    -5.164584    -5.166807    -0.117639
H     2.309081    -6.506213    -4.028226
O     1.971670    -6.176414    -3.175285
H     2.402021    -6.752225    -2.511214
H     0.461708    -3.396075    -3.997167
O     1.266814    -3.032361    -4.418602
H     0.950466    -2.659174    -5.267581
H     1.948697    -1.777757     2.993974
O     2.101597    -2.708972     2.776533
H     1.416214    -2.920264     2.108271
H    -3.015757    -1.812346    -3.208734
O    -2.590155    -0.927585    -3.142691
H    -3.242494    -0.279244    -3.463375
H    -3.173935     4.971768     1.082603
O    -3.953167     5.348433     0.626529
H    -4.367663     5.907707     1.331994
H     0.878347     2.233035     2.602136
O     0.981379     2.228171     1.631135
H     1.706267     1.602239     1.468371
H     0.213561     5.640145    -0.747737
O     0.738898     6.300079    -1.255280
H     0.882897     7.099201    -0.698998
H     0.364410     7.017708     2.602118
O     0.002507     6.638843     1.783876
H     0.664459     5.965762     1.523664
H    -2.487411     0.207916     3.344018
O    -2.713389    -0.605541     3.848035
H    -1.954479    -0.648183     4.471481
H    -0.905879     0.539314     6.031904
O    -0.632120     0.018991     5.257890
H     0.078027    -0.587536     5.545972
H     0.684813    -5.014180     1.988655
O     0.140152    -5.121738     2.791670
H     0.281154    -6.042681     3.064645
H    -2.152751    -8.096120     0.449147
O    -1.829841    -7.609731     1.235086
H    -2.615704    -7.295687     1.689966
H    -0.348138     6.849827    -2.315744
O    -1.091911     7.272797    -2.816420
H    -1.883522     7.149432    -2.254418
H    -1.098540     4.297705     0.581156
O    -0.723505     4.357508    -0.314148
H    -1.429757     4.118586    -0.948077
H    -4.407142     2.747545     3.506647
O    -4.406985     2.917597     4.471280
H    -4.494743     2.034763     4.879916
H     2.000056    -3.608851     4.256100
O     1.931572    -4.081062     5.108904
H     2.438909    -3.547408     5.741279
H     4.674330    -3.229953     0.857202
O     4.514849    -3.153944    -0.109466
H     3.657975    -2.673219    -0.194328
H    -2.723616    -0.753208    -1.349760
O    -3.051758    -0.482294    -0.475898
H    -3.849777     0.046719    -0.684252
H    -1.610732    -0.769090    -4.626941
O    -1.100901    -0.555144    -5.429588
H    -0.389600     0.038707    -5.142552
H     1.794319    -1.737265    -3.365590
O     1.888488    -0.991075    -2.742033
H     1.113562    -0.410881    -2.874269
H     3.643379    -3.152764     2.565959
O     4.600808    -3.389561     2.496519
H     4.643593    -4.349971     2.623679
H     3.392188    -6.153029     3.137751
O     3.752136    -5.950520     2.238314
H     3.016590    -5.604153     1.693042
H    -3.329385     1.609568    -4.176117
O    -4.176560     1.142202    -3.987441
H    -4.395594     1.288397    -3.031189
H    -5.067181     4.151690     0.065192
O    -5.508915     3.287372    -0.039332
H    -6.438268     3.410325    -0.322982
H     6.731016    -1.225450    -1.340705
O     5.958478    -1.073124    -0.790062
H     5.535677    -1.939124    -0.593016
H     4.585228    -3.203099    -2.453553
O     3.718911    -3.028444    -2.871190
H     3.721357    -3.646861    -3.627612
H     4.407025    -2.331088     5.634979
O     4.070963    -2.796376     6.430982
H     4.408229    -3.698863     6.342112
H    -0.740751     6.323117     5.083774
O    -1.336333     6.901108     5.620758
H    -1.345357     7.778361     5.179532
H     4.699997    -0.171850    -1.448167
O     3.935432     0.373780    -1.712358
H     3.241128    -0.223707    -2.044191
H    -0.716964     4.511460    -4.029157
O    -1.497047     5.057614    -4.238835
H    -1.343161     5.923564    -3.815671
H     0.676893     3.185653    -2.647440
O     0.687689     3.562524    -3.555872
H     0.733033     2.799013    -4.141442
H    -5.409320    -5.188709     1.789410
O    -4.714322    -5.786136     1.435356
H    -3.872693    -5.373764     1.707988
H     7.882210    -1.737466    -4.009260
O     7.623810    -1.423759    -3.109927
H     7.140667    -0.577795    -3.267129
H     3.690374    -5.101962    -5.275924
O     4.453645    -4.732236    -4.793193
H     4.833810    -5.445147    -4.247057
H    -3.796014     0.015686     4.934963
O    -4.396026     0.482002     5.566550
H    -5.059527    -0.173462     5.856854
H     3.440021    -5.972626    -0.507071
O     4.313823    -5.727978    -0.823956
H     4.393484    -4.766020    -0.679024
H     5.006614    -0.371459    -4.141939
O     4.469526    -1.080767    -4.533181
H     4.139211    -1.662725    -3.816182
H    -1.159136     1.561417    -3.930446
O    -1.806261     2.184739    -4.317293
H    -1.445609     2.515173    -5.162763
H     4.862478    -6.357879    -2.299257
O     5.197040    -6.684372    -3.163701
H     6.012421    -7.168634    -2.974413
H     8.724668    -5.142949    -2.895629
O     8.031285    -5.558753    -2.338234
H     8.060653    -6.515987    -2.441880
H     2.354802     4.693659     0.465861
O     1.774049     4.677783     1.235941
H     1.412652     3.759013     1.312644
H    -4.436315    -2.634079     4.229698
O    -5.328505    -2.290951     4.025520
H    -5.187332    -1.510199     3.450519
H    -5.863125    -3.188722     1.312624
O    -6.329511    -3.744090     1.979849
H    -6.141092    -3.309599     2.830911
H     1.684439     3.443969     6.875168
O     1.064533     3.961772     6.340003
H     0.281126     4.118159     6.910155
H     4.980328    -2.212304     3.632747
O     5.006566    -1.491280     4.294508
H     4.197816    -0.929775     4.137902
H     2.365502    -5.604257     4.852210
O     2.740510    -6.488116     4.585760
H     1.991576    -7.065993     4.415947
H     2.251278    -4.540223    -6.778753
O     2.078901    -5.027970    -5.963423
H     1.815236    -4.335802    -5.308535
H     6.424621    -4.140695    -0.486866
O     7.174577    -4.550709    -0.024566
H     7.680851    -4.974540    -0.745416
H    -1.724811     4.478827     7.706843
O    -0.826306     4.573297     8.093987
H    -0.641679     5.531754     8.119072
H    -5.085654     5.699322    -5.597444
O    -4.480998     4.933450    -5.616644
H    -3.721789     5.144980    -6.181077
H     3.287056    -2.555352    -8.422700
O     3.195721    -3.087786    -7.621634
H     4.071556    -3.067040    -7.191081
H    -0.621471     8.813826    -2.269558
O    -0.496219     9.641772    -1.750429
H     0.264146     9.464259    -1.172102
H     2.050457    -0.937572     5.223955
O     1.475578    -1.462390     5.810257
H     1.566878    -1.116503     6.707560
H     5.207787    -2.060624    -5.674713
O     5.552213    -2.828219    -6.195996
H     5.273753    -3.617139    -5.679409
H     5.699353    -5.326372     4.626180
O     5.124506    -5.182972     5.408850
H     4.389046    -5.802293     5.316227
H    -3.985893     1.144437     7.007359
O    -3.793580     1.619392     7.851600
H    -4.668682     2.008463     8.110716
H    -1.812888     9.606203    -0.739373
O    -2.674758     9.483118    -0.266652
H    -3.282715     10.113954    -0.655766
H    -5.925257     4.697983    -2.941744
O    -6.833679     4.582551    -3.287819
H    -6.744643     3.879862    -3.964769
H     0.066542    -7.081080    -1.136317
O     0.527864    -7.519032    -0.388016
H    -0.153235    -7.711300     0.259631
H    -7.619995     3.806214    -1.980407
O    -7.885153     3.220224    -1.240909
H    -7.745065     2.311001    -1.580268
H     3.952928    -0.925983     7.003756
O     3.966286     0.037829     6.992263
H     4.781629     0.324786     6.564257
H     2.282146     5.770983    -1.165625
O     3.216307     5.474521    -1.049649
H     3.392324     4.933931    -1.842645
H     6.451847    -5.932390     0.632973
O     6.113952    -6.658394     1.204744
H     5.205559    -6.377597     1.430585
H    -3.867533     4.727215     7.782033
O    -3.301376     4.262257     7.124122
H    -3.498808     3.319608     7.234053
H     5.727414    -7.983874     0.156408
O     5.440563    -8.670224    -0.481624
H     4.612290    -8.343789    -0.877597
H    -0.567177     2.026549     7.700910
O    -1.199116     1.964262     6.964498
H    -2.068992     1.826301     7.359314
H    -6.387345    -0.111871     1.057655
O    -6.706054    -0.194151     0.144118
H    -7.625931    -0.461159     0.160284
H    -5.385014    -3.058282    -0.591398
O    -5.131184    -2.357134     0.034909
H    -5.697829    -1.582002    -0.153682
H     4.337230     5.544062     0.338208
O     4.669651     5.642966     1.244148
H     3.976490     6.156222     1.695125
H    -9.048422    -1.724073    -2.263533
O    -8.501216    -1.524948    -1.476443
H    -8.632721    -2.261148    -0.839099
H    -5.501374     3.478168    -5.529967
O    -6.022342     2.769491    -5.116380
H    -5.358954     2.181349    -4.701331
H     3.186356    -0.916747    -5.640713
O     2.330901    -1.033300    -6.108242
H     2.413857    -1.882617    -6.581527
H     8.119490    -1.398275    -6.004269
O     8.123123    -2.262384    -5.547917
H     7.265732    -2.658565    -5.800504
H     7.635483     0.944215    -6.286048
O     7.444066     0.096534    -6.699445
H     6.462611     0.050653    -6.738018
H    -7.879406    -3.676973     0.921965
O    -8.555954    -3.567300     0.236183
H    -8.459598    -4.327107    -0.365312
H    -2.377085     8.730422     1.297765
O    -2.230101     8.141187     2.051013
H    -1.461681     7.585097     1.829653
H    -4.427256     6.437193     3.497246
O    -4.594101     6.863841     2.640396
H    -3.828163     7.446870     2.502383
H     3.419814     3.416897    -3.561776
O     3.270136     4.386709    -3.468559
H     2.305730     4.455222    -3.578087
H    -6.117469    -1.596272    -3.446323
O    -6.204164    -2.175318    -2.662602
H    -6.987939    -1.865072    -2.155450
H     6.461520     1.005588     4.762141
O     6.065310     1.546140     5.461960
H     6.259444     2.464156     5.172831
H     1.378026     1.701299    -5.811354
O     1.179639     1.106185    -5.057503
H     1.540128     0.241670    -5.326652
H    -2.500804     2.956240     10.487760
O    -2.291652     2.047842     10.214721
H    -2.888720     1.850664     9.481161
H     7.626800    -0.540037     3.104968
O     6.870601     0.026058     3.270719
H     6.176031    -0.571461     3.650250
H    -5.692471    -8.047195    -0.704850
O    -4.959046    -8.118917    -0.057126
H    -4.960617    -7.301729     0.465034
H    -5.170823    -0.113048    -4.717233
O    -5.790167    -0.822390    -4.958384
H    -6.626205    -0.377405    -5.158020
H     1.901781    -0.221328    -7.502992
O     1.703821     0.251346    -8.347271
H     2.280076    -0.156259    -8.999259
H     4.882907    -1.428354    -9.286235
O     3.959237    -1.195697    -9.570174
H     3.940367    -1.313330    -10.519269
H     7.277103    -2.562604     4.162894
O     7.740773    -2.718171     3.317996
H     7.425577    -3.615045     3.080333
H     6.775651    -5.939320     2.634359
O     6.984535    -5.368212     3.405962
H     7.819910    -5.727378     3.790892
H    -1.794283     8.938811     3.502888
O    -1.547197     9.242408     4.401766
H    -2.396368     9.378240     4.855551
H    -7.375705     1.582383    -5.256759
O    -7.953898     0.840469    -5.012893
H    -8.854210     1.243624    -4.938704
H     6.936166    -1.126279    -8.382292
O     6.352045    -1.845160    -8.647089
H     6.120695    -2.294027    -7.815569
H    -1.639871     6.232950    -7.016738
O    -2.041430     5.409167    -6.744067
H    -1.795528     5.277361    -5.779904
H    -0.006397     3.294313     9.032217
O     0.186383     2.373693     9.287517
H    -0.613972     2.112786     9.792473
H     6.748124    -2.822260    -2.684431
O     6.213980    -3.564723    -2.345026
H     6.678812    -4.377342    -2.592152
H    -4.082549    -3.071712    -4.943443
O    -4.234201    -2.958398    -5.908571
H    -4.778406    -2.163310    -5.965781
H     1.969317     2.159531     8.478163
O     2.634739     2.269013     7.789129
H     3.053975     1.397314     7.674987
H    -6.928410    -5.189110    -1.401058
O    -7.844520    -5.455061    -1.648488
H    -7.974808    -5.051876    -2.531648
H    -3.819911     5.255705     5.698701
O    -3.782917     6.023953     5.107912
H    -2.847995     6.314691     5.203940
H    -7.883122     0.104459    -1.973276
O    -7.389621     0.826078    -2.385843
H    -7.616101     0.816011    -3.339529
H     5.834633     0.090520     0.431194
O     5.614381     0.812981     1.051697
H     6.122501     0.616354     1.864996
H    -6.219062     3.320476     7.392898
O    -6.094884     2.801666     8.221751
H    -6.698041     2.042774     8.132256
H     2.245926    -8.098771    -0.829531
O     2.923895    -8.089141    -1.524937
H     2.696262    -8.801995    -2.138525
H    -2.750891    -3.965689    -6.194214
O    -1.999876    -4.534869    -5.961054
H    -1.724299    -4.244489    -5.063287
H    -5.641607     3.768640     5.307123
O    -6.290301     4.167750     5.923081
H    -6.122905     5.111130     5.910044
H    -1.043699    -7.125766    -3.156948
O    -0.569473    -6.457922    -2.627870
H     0.338898    -6.392154    -3.007117
H     4.439793     1.982942     5.146914
O     3.499068     2.225178     5.024837
H     3.113277     2.243755     5.906019
H     4.113268     4.624639     6.318653
O     4.198353     5.354323     5.700607
H     3.631226     5.116176     4.928682
H     2.768955     3.590388     3.937570
O     2.595684     4.531203     3.771223
H     2.478367     4.630346     2.804605
H     9.394954     0.156475    -1.040646
O     8.586380     0.320406    -0.551768
H     8.408354    -0.496217    -0.056018
H    -2.103267     5.313753     10.655954
O    -2.828205     4.688040     10.885879
H    -3.047708     4.866267     11.800591
H     7.956426    -3.058702     0.354941
O     8.376611    -2.214916     0.620753
H     8.305619    -2.223023     1.582317
H     5.375754     3.627556     3.544948
O     6.031865     3.889516     4.212572
H     5.621747     4.609432     4.713687
H    -4.210793     5.024368     9.785879
O    -4.841857     5.177747     9.062590
H    -5.456682     4.431564     9.059010
H    -7.020523    -3.464831    -3.490526
O    -7.642597    -4.074211    -3.940123
H    -7.122001    -4.518335    -4.641346
H     0.028190     6.113612     10.780366
O    -0.834593     6.448417     10.531396
H    -0.715368     6.878505     9.665316
H     2.600946     1.469746    -4.091305
O     3.480477     1.818589    -3.851079
H     3.796884     1.302604    -3.079646
H    -6.990295    -0.205230     7.214965
O    -7.496291     0.575333     7.494248
H    -8.117347     0.761198     6.788916
H    -2.783840    -9.877677    -0.826580
O    -2.716606    -8.936350    -0.986625
H    -3.621471    -8.566159    -0.747565
H    -10.048966     3.101989    -4.908835
O    -10.170338     2.185004    -4.628363
H    -10.387529     2.269936    -3.679026
H    -2.091559    -3.031253     4.618893
O    -2.968418    -3.467684     4.686885
H    -2.963451    -4.085667     3.930752
H    -0.217939    -7.997613     2.493888
O     0.608482    -7.790035     2.942997
H     1.326640    -8.089059     2.357701
H     6.412297    -2.281472     6.443075
O     7.006622    -2.916430     6.027567
H     6.501611    -3.744520     6.047768
H    -5.296521    -1.996700     6.942487
O    -5.969866    -1.495899     6.457238
H    -5.953495    -1.873013     5.548114
H     0.860089     3.014045    -7.103934
O     1.776453     2.679444    -7.158396
H     1.760665     1.931985    -7.784233
H    -3.934967     8.758083     6.674117
O    -3.931214     8.755802     5.716755
H    -4.059686     7.828741     5.448899
H    -2.014770     10.307321    -2.732242
O    -2.915136     10.492533    -3.035702
H    -2.839593     11.126096    -3.748559
H     9.235103    -3.116734     4.250369
O     9.864606    -3.434466     4.937953
H     9.390497    -3.230955     5.753528
H    -0.750463    -6.009440    -5.833173
O    -0.049938    -6.578930    -5.498500
H     0.787842    -6.120838    -5.714587
H     1.855485     8.252634     0.676946
O     1.555114     8.575604    -0.201211
H     2.370905     8.610292    -0.730196
H     3.520836     2.900007    -6.646679
O     4.346471     2.606299    -6.235909
H     4.098443     2.333886    -5.327402
H     3.762178     7.094375    -1.213831
O     3.972202     8.029203    -1.427036
H     4.342865     7.971486    -2.319649
H     4.407875    -0.040755    -7.894363
O     4.784226     0.103950    -7.024364
H     4.605749     1.036604    -6.781041
H     6.036762     1.893419    -0.455361
O     6.604583     2.083683    -1.215968
H     7.426717     1.600792    -1.020087
H     6.650930    -8.473487    -1.584691
O     7.290618    -8.266267    -2.319053
H     7.648438    -9.103061    -2.610746
H    -5.317142    -5.781684    -5.408741
O    -5.930935    -5.107183    -5.724746
H    -5.376192    -4.341254    -5.960489
H     0.694435     7.156093     7.611479
O    -0.207677     7.187232     7.969261
H    -0.761570     7.204226     7.150744
H    -8.903681    -2.812210    -4.110222
O    -9.421112    -2.001546    -3.943780
H    -9.131178    -1.337920    -4.573461
H    -2.432948    -5.993568    -2.139011
O    -3.309311    -5.703552    -2.409429
H    -3.496454    -6.077557    -3.295465
H    -3.002872    -5.902742    -5.406269
O    -3.606085    -6.510015    -4.935069
H    -3.127897    -7.332272    -4.767474
H    -1.364288     3.717460    -6.976515
O    -0.827589     2.959459    -6.704768
H    -1.066925     2.175304    -7.255011
H    -0.189279     0.403147    -8.207471
O    -1.084843     0.642111    -7.925702
H    -1.263688     0.119292    -7.128074
H    -10.403624     4.081071    -2.745163
O    -10.475327     3.302679    -2.177181
H    -9.646987     3.272848    -1.666813
H     4.590577     4.046885     1.738372
O     4.378512     3.126452     2.016130
H     5.092845     2.548318     1.735701
H     6.497039     1.356008    -4.198265
O     6.190397     0.733049    -3.504767
H     6.221436     1.228693    -2.661061
H     9.623176    -2.281161    -0.899033
O     9.901080    -2.071417    -1.799369
H     9.104145    -1.726669    -2.244226
H     9.958629    -3.377873    -3.070543
O     9.690577    -4.028689    -3.746326
H     9.300352    -3.519325    -4.467268
H    -7.732873    -8.557949    -1.671527
O    -6.992400    -7.966616    -1.798622
H    -7.366384    -7.052062    -1.789532
H     4.190123     6.048837    -3.804169
O     4.853897     6.747392    -3.718038
H     5.688022     6.290139    -3.578894
H     0.071552    -8.185990    -5.206471
O     0.091459    -9.168963    -5.074460
H     0.241551    -9.533413    -5.946806
H    -2.365802    -8.678930    -2.711332
O    -2.128998    -8.416107    -3.620423
H    -1.484419    -9.037399    -3.977923
H     2.143015    -10.840626    -3.482216
O     2.101482    -9.885850    -3.458672
H     1.318079    -9.611827    -3.986276
H     6.855520     3.287221    -4.552765
O     6.912142     2.608573    -5.253330
H     6.120334     2.745060    -5.795636
H    -3.596659    -3.722477     7.723335
O    -3.706781    -2.934274     7.192990
H    -3.454816    -3.174395     6.275159
H    -0.641472    -3.374568    -6.716733
O    -0.008080    -2.645841    -6.723043
H    -0.487236    -1.868294    -6.382441
H     0.624368     0.443832     8.762789
O     0.630176    -0.270983     8.122183
H    -0.293119    -0.556093     8.033044
H    -5.798737     7.377417    -4.253677
O    -6.303069     6.760567    -4.815655
H    -6.594110     6.030838    -4.224968
H    -4.238187     9.106304    -3.262617
O    -4.777247     8.312302    -3.157331
H    -4.372169     7.831185    -2.417631
H    -9.681819     5.822274    -4.655458
O    -10.218691     5.019735    -4.492908
H    -11.097905     5.224154    -4.813300
H     2.780806     6.489932     6.154299
O     1.820907     6.590298     6.250321
H     1.473853     5.678357     6.147387
H     4.835547     8.512991     0.101838
O     5.151174     8.512623     1.023369
H     5.554492     7.646767     1.155138
H     4.118395    -7.458084    -4.325768
O     3.360391    -7.739780    -4.869717
H     3.075568    -8.579456    -4.494133
H     0.401498     8.643772     4.243789
O     1.077042     7.996436     4.016921
H     1.300106     7.502770     4.832043
H     5.255621     4.155205    -3.139092
O     6.216844     4.121027    -3.084767
H     6.422063     3.539147    -2.336273
H    -2.600966    -1.548619     7.577452
O    -2.087860    -0.757363     7.798190
H    -2.711777    -0.128699     8.171500
H    -8.990429     7.959480    -4.154614
O    -8.928158     7.374532    -4.911192
H    -7.971475     7.206703    -5.044572
H     3.488475    -9.010865     1.110400
O     2.814508    -8.373528     1.352023
H     3.292390    -7.571463     1.635097
H     3.611350     8.142863     1.844944
O     2.818439     7.582433     1.955766
H     2.371564     7.820028     2.781009
N     9.354150    -6.065231     4.529638
H     10.014932    -6.420691     3.928588
H     9.654168    -5.139222     4.720925
