39

H     1.694526    -4.675648    -0.258359
O     1.794752    -5.341909     0.465562
H     1.282377    -6.118105     0.178760
H     2.349112    -6.412202    -4.106175
O     2.010260    -6.111710    -3.245749
H     2.446645    -6.708837    -2.594732
H    -2.337002    -7.935616     0.621167
O    -1.921418    -7.448404     1.358774
H    -2.651706    -7.024914     1.825735
H    -0.028686    -7.151614    -1.201809
O     0.349309    -7.607530    -0.396991
H    -0.345922    -7.494895     0.265971
H     2.646790    -8.117972    -0.716173
O     3.032637    -8.013297    -1.601905
H     2.687998    -8.747726    -2.153567
H    -0.999032    -7.112069    -3.201183
O    -0.511326    -6.464370    -2.649281
H     0.377929    -6.365034    -3.079557
H    -2.467400    -9.697217    -0.811411
O    -2.653838    -8.776146    -1.023706
H    -3.607206    -8.620991    -0.773230
H    -0.172951    -8.072406     2.635610
O     0.680984    -7.813927     2.999391
H     1.360555    -8.146690     2.388516
H     0.116515    -8.127990    -5.417976
O     0.157586    -9.104452    -5.260171
H     0.421322    -9.475520    -6.106950
H    -2.368566    -8.723829    -2.890322
O    -2.069495    -8.378922    -3.752527
H    -1.538252    -9.046461    -4.204130
H     1.228084    -10.231929    -2.508669
O     1.862046    -9.922520    -3.182328
H     1.293141    -9.608211    -3.913156
H     3.707166    -8.948735     1.183706
O     2.972323    -8.332876     1.269678
H     3.404981    -7.497393     1.573273
N     0.055278    -10.247770    -1.011388
H     0.192492    -9.302924    -0.746929
H     0.451443    -10.768691    -0.306824
