24
Coordinates from ORCA-job grain_mol_opt.QMRegion
  H   -0.84965290073674      6.41892568571789      4.90757147104388
  O   -1.44730648898952      6.96063120673602      5.48302093189171
  H   -1.59214190451885      7.82313283105951      5.03263353818862
  H   -2.48171130841127      8.75067600612295      1.22570007278080
  O   -2.31936965212899      8.23779275947881      2.03535306442755
  H   -1.53441663450067      7.68633783276335      1.85451220669071
  H   -2.34159829680429      9.14093310516487      3.59374839282622
  O   -2.27742660466647      9.36965620973042      4.54436751733474
  H   -3.16782703952861      9.21222140957094      4.92921250850043
  H   -4.64522562566481      8.51454115208597      6.69980171843715
  O   -4.62267122157214      8.47310911458305      5.73880538871035
  H   -4.45639606105853      7.52222331114672      5.53819252661139
  H   0.59965759200523      7.15262028442070      7.58204151775396
  O   -0.31187949217592      7.34237149050530      7.86584595586474
  H   -0.82275286463599      7.24632825610191      7.02390277436028
  H   2.78968361604278      6.39664286160133      6.24754428519336
  O   1.82328695162536      6.49532346207174      6.33582438037967
  H   1.50176865153946      5.56682287434865      6.23954456491842
  H   0.88983649945530      8.76823248376030      4.46808202474273
  O   1.12344787589868      7.93715313474475      4.01150846771188
  H   1.38335734521142      7.32595627231283      4.72418027773774
  O   0.21040956421620     10.07420668992076      5.58210592199077
  H   -0.71345619082257     10.03959931049926      5.26782697064624
  H   0.16983105980500      9.69245479249255      6.46656305406186
