36
Coordinates from ORCA-job grain_mol_opt.QMRegion
  H   -1.71906398164081     -4.60845307671376     -0.42261917092531
  O   -0.94516156745804     -5.16936675267368     -0.19750446050855
  H   -1.28060606254818     -5.79288085886169      0.46043682716812
  H   -2.41781862736544     -3.59556801624244      1.94042599947381
  O   -2.47727747643502     -4.51384210989847      2.29027373248754
  H   -1.53370338017612     -4.79679726132838      2.37760580554584
  H   -4.61670070057542     -5.17245697990295     -1.57673713931752
  O   -5.32906836372059     -4.81620182513195     -1.01224157823762
  H   -5.13517724410081     -5.18596706714219     -0.13406741131746
  H   0.72362830322028     -4.96248524376623      1.94542590150852
  O   0.18480102551376     -5.09049880545521      2.75384561656070
  H   0.41944638287552     -5.99942596540174      3.02417176380933
  H   -2.03446786182837     -8.21508332576811      0.63119436788151
  O   -1.61989191196822     -7.69954642299675      1.35283257879156
  H   -2.28204721241020     -7.65053800010074      2.07524374386932
  H   -5.40664607409437     -5.05791555369570      1.85633465190844
  O   -4.76385810764221     -5.76586507387934      1.56442884958330
  H   -3.88976169880140     -5.32292066182449      1.66380833286487
  H   -5.81650647777274     -3.10516206114980      1.31076073737354
  O   -6.28945814746704     -3.65805370016002      1.98733605487097
  H   -6.10291992841487     -3.19884338886958      2.83164776778704
  H   -5.68086486850216     -8.08638874067598     -0.79018701099291
  O   -4.93884874526678     -8.16036273209517     -0.14621086222587
  H   -4.97746233977818     -7.35509043817898      0.39266662353631
  H   -2.70441379009425     -9.90526595635395     -0.87052451295754
  O   -2.60501907482714     -8.95490954421120     -0.97483891756573
  H   -3.52285374626054     -8.59531905387568     -0.79579225345014
  H   -2.04709077074105     -2.96530037887181      4.60584113642780
  O   -2.90569599640804     -3.43307373141998      4.70033856836169
  H   -2.89827701110534     -4.03080245867619      3.92789582430480
  H   -0.01746144152736     -8.02483189944265      2.48729271822281
  O   0.79380625285053     -7.81368592344631      2.97736599867429
  H   1.51386026722888     -8.08755275760436      2.37572806143869
  O   -3.55858152228624     -7.54345301241458      3.30522934450453
  H   -3.33409311931752     -7.07809984138999      4.11688443153901
  H   -4.18765120268863     -6.94958393141369      2.84423692531428
