12

H     8.736369    -5.060985    -2.923259
O     8.038492    -5.469532    -2.391105
H     8.103726    -6.433685    -2.435822
H     6.680873    -8.441883    -1.581178
O     7.322510    -8.150301    -2.285947
H     7.619618    -8.951687    -2.718701
H     9.966412    -3.150112    -3.244062
O     9.698508    -3.803265    -3.921800
H     9.264985    -3.289481    -4.622810
N     10.526378    -6.565602    -4.117413
H     10.486340    -5.601975    -4.227940
H     11.463296    -6.755723    -4.024473
