12

H     3.698567     7.063258    -1.222060
O     3.923235     8.002901    -1.419549
H     4.278923     7.933902    -2.321194
H     4.908477     8.393667     0.034933
O     5.223384     8.410885     0.967058
H     5.444550     7.481301     1.141451
H     3.519351     8.251069     1.912504
O     2.754888     7.656089     1.998415
H     2.260289     7.883537     2.805209
N     7.295718     10.382247     1.276834
H     6.609282     9.695016     1.209981
H     8.116787     9.894006     1.171062
