27

H    -4.597320    -5.147739    -1.571538
O    -5.339488    -4.850801    -1.007562
H    -5.055715    -5.147393    -0.116198
H    -5.304816    -5.130144     1.851497
O    -4.628174    -5.749597     1.499604
H    -3.783315    -5.319958     1.759767
H    -5.791778    -3.118821     1.309969
O    -6.298162    -3.648023     1.976724
H    -6.082858    -3.203440     2.824268
H    -9.056558    -1.711956    -2.362525
O    -8.544348    -1.492509    -1.554226
H    -8.672696    -2.202531    -0.890703
H    -7.921466    -3.534229     0.956791
O    -8.628145    -3.512842     0.285626
H    -8.366889    -4.183121    -0.376912
H    -5.689140    -8.205402    -0.419588
O    -4.880365    -8.240780     0.140518
H    -4.830657    -7.374856     0.573370
H    -6.923480    -5.256963    -1.467985
O    -7.875819    -5.407777    -1.694760
H    -7.968648    -4.972053    -2.573257
H    -7.882225    -8.080361    -0.468648
O    -7.238762    -8.204074    -1.187035
H    -7.383809    -7.400520    -1.711723
N    -9.269542    -6.935117     0.413682
H    -9.131714    -6.290676    -0.296715
H    -9.232189    -6.400521     1.213493
