603

H     0.191590     3.045246    -0.683734
O     0.715448     2.379813    -1.179837
H     1.654309     2.508815    -0.906886
H    -0.070363    -1.295289     3.143944
O     0.319250    -0.593787     2.599427
H    -0.159953     0.218403     2.834125
H    -2.406738     2.419800    -0.537357
O    -2.192539     1.949284     0.285754
H    -2.209072     1.001392     0.060623
H    -4.662297     0.551238     2.184035
O    -4.977622    -0.382659     2.197498
H    -4.473657    -0.859272     1.529710
H     0.063299    -0.296342     0.945316
O    -0.135318    -0.058919     0.018810
H     0.201545     0.838612    -0.100660
H    -0.143895    -3.565838     3.770512
O    -0.423187    -2.736084     4.191447
H     0.223531    -2.565056     4.892585
H    -4.891032     2.534855     1.333221
O    -4.249474     2.126385     1.946554
H    -3.407810     2.110335     1.432111
H    -3.262451     3.906918    -2.210388
O    -2.522706     3.311995    -1.980883
H    -2.166625     3.023550    -2.841424
H    -0.120106    -3.792275     0.495626
O     0.219086    -2.974071     0.912806
H    -0.568671    -2.489521     1.226578
H    -2.373382    -1.530649     2.466829
O    -2.184831    -1.995847     1.625360
H    -2.445847    -1.409084     0.896514
H     2.070794    -1.426360    -1.132229
O     2.304429    -1.678814    -0.215072
H     1.516749    -2.108411     0.169760
H    -1.393994     1.834839     1.908428
O    -1.482403     1.436611     2.784515
H    -1.468435     2.148567     3.449936
H     0.207511    -2.689355    -1.578469
O    -0.549030    -2.078672    -1.631327
H    -0.369696    -1.352735    -0.997071
H    -3.435353    -2.918405    -0.392887
O    -2.717620    -3.408817    -0.814812
H    -2.009181    -2.776690    -1.034244
H     2.773685     0.145463     2.922134
O     2.875759    -0.037287     3.883378
H     2.965940     0.855420     4.288574
H    -3.543804     6.387676    -0.540915
O    -3.307096     7.050959    -1.241121
H    -3.167112     7.896271    -0.770725
H     3.899132     0.601758     1.173365
O     2.948718     0.420017     1.289258
H     2.711976    -0.333385     0.710768
H    -5.788948     0.846268    -1.600303
O    -4.878867     1.175231    -1.475475
H    -4.990563     2.003306    -0.963509
H    -1.220177     5.407538     2.208448
O    -1.843228     4.659037     2.091579
H    -1.919869     4.239820     2.953969
H     3.486562     2.781754     0.411838
O     3.238903     2.740554    -0.527582
H     3.569593     1.897081    -0.878402
H     1.492532    -4.680398    -2.262514
O     1.556775    -3.903133    -1.689312
H     2.349947    -3.440608    -2.041786
H    -0.929591    -0.073687    -2.553816
O    -0.297750     0.580878    -2.878300
H    -0.037000     1.162316    -2.141047
H     1.703927    -4.669784    -0.191582
O     1.813417    -5.306844     0.550641
H     1.350960    -6.118797     0.255163
H    -1.229367    -3.254026    -2.885939
O    -1.055293    -3.936445    -3.547481
H    -0.926702    -4.783565    -3.079378
H    -2.780649     3.315567     4.704024
O    -1.799404     3.314874     4.668107
H    -1.504461     2.913106     5.503660
H     0.957599     5.047759     4.069630
O     0.011237     5.278486     4.122054
H    -0.459190     4.474837     4.381528
H    -1.725964    -4.640638    -0.377256
O    -0.959240    -5.179968    -0.093856
H    -1.304485    -5.867938     0.484493
H    -3.936422     5.839994    -2.595497
O    -4.285812     5.005063    -2.924527
H    -4.133549     4.970999    -3.893210
H    -2.423722    -3.681398     1.932136
O    -2.439865    -4.585760     2.307593
H    -1.499447    -4.822365     2.446257
H    -4.698780    -2.973734    -2.898155
O    -3.846683    -3.204669    -3.306118
H    -3.513503    -3.998137    -2.842123
H     0.342360     1.388994     4.607638
O     0.846346     2.150258     4.273252
H     0.895039     2.808852     4.980485
H    -4.652055    -5.164570    -1.571493
O    -5.353310    -4.812433    -0.996257
H    -5.138018    -5.166982    -0.112669
H     2.327361    -6.462671    -4.054166
O     1.991355    -6.134818    -3.199848
H     2.427829    -6.708417    -2.537743
H     0.462583    -3.363307    -4.014973
O     1.263591    -2.994063    -4.439351
H     0.941754    -2.623746    -5.287531
H     1.968799    -1.738192     2.970810
O     2.125618    -2.668528     2.752393
H     1.438751    -2.883206     2.086708
H    -3.021011    -1.800154    -3.211816
O    -2.600321    -0.912835    -3.147695
H    -3.258023    -0.268429    -3.465304
H    -3.200265     4.983006     1.080829
O    -3.983152     5.355702     0.627874
H    -4.398116     5.912334     1.335171
H     0.873083     2.267354     2.583267
O     0.973419     2.264161     1.611910
H     1.700352     1.641162     1.446542
H     0.175515     5.669443    -0.763284
O     0.696693     6.332463    -1.271608
H     0.836131     7.132030    -0.715535
H     0.332336     7.049015     2.585886
O    -0.029388     6.669236     1.767990
H     0.634376     5.998611     1.506453
H    -2.477578     0.222780     3.338960
O    -2.696695    -0.591955     3.843821
H    -1.934983    -0.630240     4.464153
H    -0.887016     0.563223     6.020253
O    -0.613226     0.045082     5.244840
H     0.101374    -0.557809     5.530073
H     0.718849    -4.981201     1.969516
O     0.178437    -5.091776     2.775083
H     0.325056    -6.012297     3.046529
H    -2.107089    -8.079101     0.441246
O    -1.784009    -7.590740     1.225933
H    -2.569969    -7.281429     1.683873
H    -0.399307     6.876727    -2.328177
O    -1.146822     7.296432    -2.825295
H    -1.935987     7.168455    -2.260667
H    -1.122858     4.321421     0.570715
O    -0.751964     4.383499    -0.326194
H    -1.459663     4.139988    -0.957031
H    -4.410936     2.751557     3.509783
O    -4.407376     2.921667     4.474381
H    -4.488708     2.038357     4.883394
H     2.034639    -3.568103     4.231909
O     1.973216    -4.040800     5.085009
H     2.480505    -3.503653     5.715051
H     4.691433    -3.174703     0.821620
O     4.529412    -3.097902    -0.144568
H     3.669072    -2.622833    -0.226078
H    -2.727531    -0.739349    -1.353929
O    -3.053300    -0.469785    -0.478754
H    -3.855641     0.053985    -0.683729
H    -1.628038    -0.748605    -4.635994
O    -1.122268    -0.530060    -5.440041
H    -0.411937     0.065277    -5.154001
H     1.788554    -1.697109    -3.388186
O     1.880612    -0.950447    -2.764750
H     1.102366    -0.374411    -2.894748
H     3.669563    -3.104794     2.535186
O     4.628911    -3.331793     2.459961
H     4.685693    -4.291931     2.586244
H     3.439074    -6.104448     3.106707
O     3.792690    -5.902241     2.205975
H     3.053397    -5.558024     1.664624
H    -3.358879     1.620187    -4.176671
O    -4.202685     1.147835    -3.985077
H    -4.418738     1.292398    -3.027917
H    -5.093445     4.152432     0.071054
O    -5.530291     3.285489    -0.031522
H    -6.461625     3.402701    -0.311359
H     6.728862    -1.157072    -1.384932
O     5.958096    -1.009046    -0.830306
H     5.541083    -1.877817    -0.632445
H     4.591112    -3.147411    -2.488218
O     3.722325    -2.976781    -2.902377
H     3.725089    -3.594980    -3.659082
H     4.445831    -2.276407     5.605380
O     4.105129    -2.742737     6.398912
H     4.441397    -3.647210     6.316278
H    -0.758110     6.348091     5.071672
O    -1.354578     6.922674     5.611180
H    -1.370471     7.799942     5.170207
H     4.690665    -0.115041    -1.482361
O     3.924571     0.428429    -1.746591
H     3.231092    -0.171659    -2.075714
H    -0.764331     4.536666    -4.040644
O    -1.547137     5.079655    -4.247405
H    -1.395898     5.946077    -3.824571
H     0.640606     3.215553    -2.663938
O     0.643377     3.591924    -3.573233
H     0.696214     2.828313    -4.158402
H    -5.374923    -5.190452     1.795505
O    -4.677950    -5.783747     1.438457
H    -3.837587    -5.366647     1.707729
H     7.871981    -1.657540    -4.057646
O     7.610521    -1.341054    -3.159921
H     7.126267    -0.497424    -3.321629
H     3.695915    -5.050394    -5.307464
O     4.458473    -4.675695    -4.827511
H     4.845357    -5.386590    -4.283238
H    -3.778568     0.023050     4.935217
O    -4.378584     0.486103     5.569176
H    -5.037169    -0.173119     5.862256
H     3.469555    -5.923858    -0.536372
O     4.341149    -5.674909    -0.855928
H     4.416028    -4.712594    -0.712041
H     4.986774    -0.306311    -4.186126
O     4.455857    -1.024848    -4.567876
H     4.132947    -1.606651    -3.847203
H    -1.187848     1.583532    -3.939867
O    -1.840560     2.203970    -4.322007
H    -1.488760     2.535655    -5.170671
H     4.887115    -6.300417    -2.335392
O     5.218896    -6.623889    -3.201927
H     6.037862    -7.103984    -3.017205
H     8.738627    -5.063634    -2.945799
O     8.049116    -5.482737    -2.386107
H     8.085361    -6.439951    -2.488800
H     2.328833     4.733931     0.441672
O     1.750066     4.717057     1.212880
H     1.394070     3.796126     1.292902
H    -4.406592    -2.630444     4.232243
O    -5.301537    -2.292288     4.031839
H    -5.167164    -1.510719     3.456368
H    -5.842018    -3.192921     1.320981
O    -6.302485    -3.750981     1.990025
H    -6.113169    -3.315547     2.840388
H     1.690264     3.482435     6.853062
O     1.065670     3.997344     6.320485
H     0.283509     4.148931     6.893753
H     5.007368    -2.150328     3.598555
O     5.028161    -1.431792     4.262460
H     4.214888    -0.877109     4.107936
H     2.405035    -5.562223     4.824349
O     2.786173    -6.445152     4.563068
H     2.041876    -7.028009     4.390268
H     2.247347    -4.496145    -6.804443
O     2.080693    -4.985184    -5.988663
H     1.816292    -4.294890    -5.332341
H     6.441286    -4.080422    -0.525492
O     7.196338    -4.482008    -0.064088
H     7.702753    -4.903870    -0.786113
H    -1.721214     4.497976     7.698851
O    -0.821468     4.597648     8.081873
H    -0.642467     5.557132     8.106773
H    -5.144435     5.699999    -5.590642
O    -4.534919     4.937975    -5.612089
H    -3.780019     5.153890    -6.180507
H     3.264828    -2.504298    -8.451929
O     3.179268    -3.037359    -7.650423
H     4.057015    -3.013314    -7.224066
H    -0.683668     8.839790    -2.281206
O    -0.559951     9.668540    -1.762839
H     0.203007     9.495342    -1.187085
H     2.074006    -0.898119     5.200534
O     1.503072    -1.425165     5.788613
H     1.597959    -1.080169     6.685853
H     5.194954    -1.999604    -5.710345
O     5.539561    -2.764535    -6.235398
H     5.268909    -3.555614    -5.717649
H     5.708802    -5.195049     4.665463
O     5.188026    -5.110810     5.493141
H     4.467693    -5.744374     5.409248
H    -3.966259     1.150793     7.008438
O    -3.773055     1.627019     7.851754
H    -4.649313     2.011006     8.114612
H    -1.873353     9.625857    -0.746348
O    -2.732122     9.497372    -0.269870
H    -3.345685     10.124681    -0.655909
H    -5.966933     4.693614    -2.931680
O    -6.876077     4.573302    -3.274044
H    -6.786092     3.871164    -3.951446
H     0.099881    -7.051081    -1.153487
O     0.566438    -7.486210    -0.406773
H    -0.111112    -7.682804     0.243259
H    -7.652607     3.792251    -1.963472
O    -7.910783     3.204636    -1.222814
H    -7.767406     2.296251    -1.563101
H     3.984051    -0.875539     6.971698
O     3.990901     0.088638     6.962001
H     4.802392     0.379743     6.529763
H     2.241298     5.813054    -1.188469
O     3.180223     5.526946    -1.082792
H     3.349160     4.977278    -1.871497
H     6.557325    -5.906983     0.649169
O     6.190971    -6.643921     1.183474
H     5.286447    -6.368393     1.412216
H    -3.864800     4.734251     7.782947
O    -3.298706     4.272615     7.122593
H    -3.490385     3.328843     7.233284
H     5.771372    -7.923929     0.115890
O     5.483335    -8.611258    -0.521256
H     4.652834    -8.286970    -0.913704
H    -0.549865     2.052198     7.687970
O    -1.184437     1.986935     6.954088
H    -2.051853     1.843579     7.352411
H    -6.385244    -0.119185     1.068870
O    -6.706838    -0.202935     0.156506
H    -7.625050    -0.475432     0.175953
H    -5.372414    -3.059677    -0.584828
O    -5.119975    -2.356918     0.040285
H    -5.692076    -1.585234    -0.145889
H     4.305168     5.598092     0.304613
O     4.639751     5.699578     1.209446
H     3.945051     6.207803     1.663434
H    -9.050266    -1.746084    -2.241781
O    -8.500962    -1.543944    -1.456896
H    -8.625725    -2.281006    -0.819176
H    -5.546931     3.476665    -5.521963
O    -6.062065     2.765062    -5.106175
H    -5.393730     2.180456    -4.694084
H     3.168412    -0.865394    -5.669050
O     2.312340    -0.987314    -6.133837
H     2.397309    -1.836689    -6.606969
H     8.105271    -1.315525    -6.042734
O     8.111403    -2.185117    -5.596996
H     7.254222    -2.581853    -5.848543
H     7.808179     0.973103    -6.371417
O     7.511267     0.165457    -6.801421
H     6.529765     0.224800    -6.830375
H    -7.857130    -3.692851     0.938541
O    -8.536951    -3.586755     0.255454
H    -8.438911    -4.345998    -0.346499
H    -2.424120     8.746272     1.293055
O    -2.270135     8.157804     2.045503
H    -1.499663     7.606141     1.820558
H    -4.451998     6.441121     3.500864
O    -4.624493     6.866764     2.644621
H    -3.862700     7.454458     2.503844
H     3.250000     3.585496    -3.589432
O     3.071514     4.553913    -3.561242
H     2.093420     4.544133    -3.572684
H    -6.125200    -1.601727    -3.436600
O    -6.205064    -2.181067    -2.652389
H    -6.988777    -1.875660    -2.142203
H     6.471078     1.072010     4.720194
O     6.077092     1.610380     5.423425
H     6.263777     2.529301     5.132611
H     1.330980     1.734062    -5.836885
O     1.156493     1.144009    -5.073220
H     1.517805     0.280565    -5.344758
H    -2.477200     2.970779     10.482910
O    -2.263871     2.063695     10.208749
H    -2.862981     1.863114     9.477778
H     7.629611    -0.473800     3.061578
O     6.878793     0.100477     3.231838
H     6.188416    -0.501300     3.612996
H    -5.651788    -8.050296    -0.698222
O    -4.915279    -8.117727    -0.053541
H    -4.919589    -7.300685     0.468787
H    -5.192532    -0.112946    -4.711151
O    -5.808665    -0.825846    -4.949930
H    -6.648157    -0.385776    -5.145938
H     1.869406    -0.183404    -7.527708
O     1.657111     0.280967    -8.373027
H     2.245408    -0.111765    -9.023598
H     4.850130    -1.362093    -9.319923
O     3.923966    -1.139648    -9.600192
H     3.903927    -1.255419    -10.549585
H     7.571808    -2.547365     4.177093
O     7.715893    -2.582284     3.217128
H     7.224226    -3.374596     2.946341
H     6.731012    -5.872120     2.662231
O     6.792990    -5.196784     3.363232
H     7.669724    -5.280771     3.779588
H    -1.832803     8.957922     3.495531
O    -1.582949     9.262765     4.393188
H    -2.430693     9.394041     4.851011
H    -7.409293     1.569985    -5.241408
O    -7.982000     0.824751    -4.994847
H    -8.884383     1.222596    -4.917050
H     6.908278    -1.044309    -8.423260
O     6.328632    -1.767339    -8.683558
H     6.104530    -2.220505    -7.852442
H    -1.706174     6.251471    -7.027226
O    -2.103059     5.426678    -6.750773
H    -1.852697     5.297776    -5.787492
H     0.009174     3.323259     9.017109
O     0.208327     2.403757     9.271474
H    -0.588448     2.138159     9.779668
H     6.749943    -2.753528    -2.729055
O     6.222894    -3.498490    -2.385157
H     6.691723    -4.308820    -2.633024
H    -4.087725    -3.065197    -4.942402
O    -4.243727    -2.952374    -5.906881
H    -4.793373    -2.160886    -5.961718
H     1.989002     2.199546     8.454764
O     2.651024     2.312799     7.763043
H     3.074380     1.443184     7.647156
H    -6.906944    -5.199117    -1.388721
O    -7.822572    -5.470202    -1.632249
H    -7.958863    -5.067868    -2.514886
H    -3.828832     5.263122     5.699557
O    -3.798399     6.031448     5.108457
H    -2.864866     6.327569     5.200950
H    -7.894368     0.088984    -1.955974
O    -7.406686     0.813532    -2.370356
H    -7.637107     0.802276    -3.323115
H     5.831204     0.146323     0.398535
O     5.610102     0.868603     1.019317
H     6.123736     0.676019     1.831085
H    -6.210016     3.314105     7.403436
O    -6.079365     2.795972     8.231686
H    -6.678613     2.033689     8.144686
H     2.284652    -8.056471    -0.856543
O     2.960142    -8.042243    -1.554209
H     2.735423    -8.756599    -2.167097
H    -2.755949    -3.951284    -6.199045
O    -2.000614    -4.515989    -5.969096
H    -1.723063    -4.224392    -5.072348
H    -5.643511     3.765829     5.315330
O    -6.291910     4.161189     5.933971
H    -6.130182     5.105539     5.920278
H    -1.018088    -7.101750    -3.169268
O    -0.545629    -6.431164    -2.642051
H     0.360896    -6.360266    -3.024999
H     4.446628     2.036414     5.114157
O     3.504572     2.274963     4.995539
H     3.121753     2.289957     5.878127
H     4.109972     4.676990     6.287374
O     4.188860     5.406857     5.668704
H     3.619516     5.165591     4.899421
H     2.761592     3.635146     3.912093
O     2.583114     4.575026     3.745632
H     2.461023     4.672835     2.779613
H     9.386129     0.238702    -1.096647
O     8.584301     0.398157    -0.595212
H     8.409344    -0.423616    -0.106683
H    -2.092252     5.330546     10.649675
O    -2.812674     4.700721     10.882399
H    -3.029604     4.877607     11.797988
H     7.973331    -2.984470     0.303844
O     8.392856    -2.136763     0.558454
H     8.330000    -2.132674     1.520984
H     5.365659     3.687159     3.509346
O     6.024122     3.953845     4.172574
H     5.611771     4.670572     4.676529
H    -4.201554     5.029452     9.788145
O    -4.836219     5.179209     9.067250
H    -5.447067     4.429755     9.066343
H    -7.017423    -3.475417    -3.477454
O    -7.637899    -4.088153    -3.924607
H    -7.117693    -4.529324    -4.627989
H     0.035327     6.142667     10.765365
O    -0.830385     6.472322     10.519738
H    -0.717117     6.903441     9.653409
H     2.488146     1.553209    -4.119532
O     3.362352     1.921578    -3.864917
H     3.696492     1.363520    -3.131500
H    -6.962060    -0.216009     7.228298
O    -7.471027     0.561891     7.509589
H    -8.096401     0.743966     6.807091
H    -2.733079    -9.863933    -0.832543
O    -2.671874    -8.922134    -0.992257
H    -3.577896    -8.557293    -0.749578
H    -10.089662     3.074315    -4.882178
O    -10.204307     2.156621    -4.601213
H    -10.418323     2.240188    -3.651055
H    -2.058165    -3.014184     4.611628
O    -2.932199    -3.455674     4.683188
H    -2.926766    -4.073535     3.926934
H    -0.164899    -7.969611     2.478039
O     0.662117    -7.757535     2.923988
H     1.379593    -8.052419     2.335674
H     6.717714    -2.352831     6.372453
O     7.167177    -3.061454     5.907186
H     6.538567    -3.797545     5.870296
H    -5.259315    -1.997882     6.948623
O    -5.937313    -1.500711     6.466129
H    -5.922719    -1.877870     5.556993
H     0.677392     2.942807    -7.132639
O     1.607605     2.639589    -7.236523
H     1.578090     1.854493    -7.825120
H    -3.959593     8.765269     6.675381
O    -3.958407     8.762712     5.718018
H    -4.083767     7.835056     5.450815
H    -2.086827     10.325958    -2.738917
O    -2.989982     10.505237    -3.037335
H    -2.922659     11.139415    -3.750482
H     9.420666    -4.034172     4.017829
O     9.142528    -4.712649     4.640719
H     8.714437    -4.240889     5.366070
H    -0.742052    -5.983376    -5.846917
O    -0.036987    -6.548498    -5.514433
H     0.797319    -6.085913    -5.734350
H     1.813053     8.290895     0.654892
O     1.507246     8.612838    -0.222275
H     2.318157     8.654413    -0.755548
H     3.265662     2.895671    -6.663763
O     4.169101     2.714375    -6.340120
H     4.016813     2.404812    -5.420085
H     3.721062     7.131309    -1.274445
O     3.928755     8.066781    -1.493198
H     4.299701     8.019979    -2.382476
H     4.431882    -0.003596    -8.004860
O     4.782442     0.193582    -7.129907
H     4.505304     1.115235    -6.940644
H     6.030782     1.932109    -0.461101
O     6.589655     2.123921    -1.227967
H     7.420152     1.649893    -1.046132
H     6.689010    -8.407083    -1.629642
O     7.322732    -8.194940    -2.367646
H     7.690369    -9.028341    -2.656800
H    -5.308537    -5.782277    -5.403198
O    -5.927517    -5.111090    -5.716140
H    -5.378124    -4.342186    -5.954568
H     0.682701     7.189318     7.593588
O    -0.218039     7.215181     7.955103
H    -0.775516     7.229021     7.139015
H    -8.907123    -2.833453    -4.089178
O    -9.428194    -2.025641    -3.920267
H    -9.145043    -1.360497    -4.551424
H    -2.409919    -5.977803    -2.145571
O    -3.288950    -5.692488    -2.412338
H    -3.477589    -6.067596    -3.297632
H    -2.993431    -5.889885    -5.410438
O    -3.591272    -6.500412    -4.936627
H    -3.107866    -7.320093    -4.771322
H    -1.428801     3.740140    -6.987070
O    -0.893645     2.981069    -6.715136
H    -1.127693     2.195303    -7.266213
H    -0.231049     0.428201    -8.223633
O    -1.125096     0.665687    -7.935470
H    -1.297746     0.140588    -7.137998
H    -10.440868     4.051223    -2.716882
O    -10.505609     3.272407    -2.148630
H    -9.675183     3.247487    -1.641497
H     4.573216     4.101809     1.704218
O     4.364766     3.180459     1.981210
H     5.082165     2.605161     1.703058
H     6.540624     1.507948    -4.166335
O     6.180186     0.851207    -3.534037
H     6.213236     1.282296    -2.658576
H     9.628804    -2.197643    -0.958251
O     9.902212    -1.982583    -1.858823
H     9.101653    -1.642251    -2.300005
H     9.963011    -3.291076    -3.128471
O     9.694056    -3.943442    -3.802248
H     9.299311    -3.436047    -4.522146
H    -7.692955    -8.572679    -1.656960
O    -6.956530    -7.976847    -1.786522
H    -7.335912    -7.064573    -1.775634
H     4.159853     6.127879    -3.814232
O     4.917071     6.739443    -3.797032
H     5.537152     6.281914    -3.209598
H     0.094895    -8.155004    -5.223877
O     0.120475    -9.137872    -5.092161
H     0.269713    -9.501363    -5.965056
H    -2.329326    -8.662718    -2.718704
O    -2.097888    -8.398039    -3.628604
H    -1.451312    -9.015454    -3.989271
H     2.189070    -10.797818    -3.509419
O     2.141067    -9.843385    -3.484494
H     1.354082    -9.573932    -4.009044
H     7.541897     3.306308    -4.157486
O     7.397352     2.843167    -4.993782
H     6.897890     3.532533    -5.496272
H    -3.546932    -3.714150     7.722191
O    -3.663249    -2.926458     7.192410
H    -3.413797    -3.165190     6.273531
H    -0.651673    -3.348372    -6.730106
O    -0.022926    -2.615646    -6.738197
H    -0.505655    -1.841120    -6.396198
H     0.654718     0.476038     8.745090
O     0.661856    -0.238408     8.104129
H    -0.260093    -0.528948     8.018827
H    -5.861027     7.374142    -4.244202
O    -6.363901     6.754220    -4.804020
H    -6.648823     6.023129    -4.212042
H    -4.306156     9.111985    -3.259331
O    -4.839763     8.314606    -3.151906
H    -4.429053     7.836123    -2.413689
H    -9.737112     5.796746    -4.629619
O    -10.268581     4.991080    -4.464925
H    -11.150232     5.190310    -4.781889
H     2.766612     6.534898     6.128018
O     1.806499     6.629859     6.226935
H     1.464266     5.715744     6.126577
H     4.789597     8.568799     0.060386
O     5.101555     8.570277     0.981726
H     5.512691     7.708204     1.115242
H     4.140599    -7.403843    -4.360085
O     3.381462    -7.689525    -4.900420
H     3.103794    -8.531311    -4.524198
H     0.368101     8.675169     4.226735
O     1.046332     8.031564     3.997104
H     1.275243     7.539162     4.811472
H     5.360486     4.049542    -2.986056
O     6.205347     4.358418    -2.639959
H     6.402703     3.704311    -1.946156
H    -2.563934    -1.534514     7.572543
O    -2.054529    -0.740225     7.790974
H    -2.680404    -0.115303     8.167262
H    -9.055418     7.938345    -4.131768
O    -8.993133     7.353238    -4.888216
H    -8.036176     7.191156    -5.026148
H     3.542060    -8.960218     1.074482
O     2.865032    -8.329450     1.324915
H     3.339039    -7.523574     1.604178
H     3.569029     8.193227     1.817311
O     2.779669     7.628557     1.929133
H     2.333779     7.862189     2.756277
N     5.927822     4.852635    -6.172919
H     5.136171     4.288462    -6.267274
H     5.681556     5.541641    -5.536877
