603

H     0.201602     3.037950    -0.691715
O     0.725252     2.368131    -1.182245
H     1.663628     2.497912    -0.908839
H    -0.079667    -1.300927     3.137835
O     0.313960    -0.601006     2.594377
H    -0.164073     0.212767     2.826188
H    -2.396737     2.418948    -0.551771
O    -2.188226     1.946901     0.272795
H    -2.204616     0.999525     0.046281
H    -4.664803     0.554991     2.163656
O    -4.982130    -0.378536     2.176440
H    -4.476719    -0.855547     1.510008
H     0.063623    -0.301970     0.938537
O    -0.132508    -0.066526     0.011244
H     0.205320     0.830715    -0.109882
H    -0.159004    -3.571461     3.764287
O    -0.438367    -2.741659     4.184972
H     0.207380    -2.570971     4.887064
H    -4.886700     2.538484     1.313491
O    -4.247665     2.127986     1.928112
H    -3.405060     2.110272     1.414547
H    -3.245601     3.906511    -2.225501
O    -2.506993     3.312871    -1.990749
H    -2.157264     3.013882    -2.852438
H    -0.127038    -3.798358     0.489226
O     0.213025    -2.981670     0.908301
H    -0.574408    -2.494213     1.218532
H    -2.380805    -1.531686     2.453007
O    -2.191286    -1.998102     1.612505
H    -2.448386    -1.410679     0.882475
H     2.073741    -1.437351    -1.132485
O     2.304588    -1.691425    -0.214998
H     1.514339    -2.117709     0.168065
H    -1.393680     1.830289     1.896820
O    -1.484475     1.432756     2.773198
H    -1.470848     2.145324     3.437823
H     0.209783    -2.697296    -1.582409
O    -0.546450    -2.086813    -1.638008
H    -0.367997    -1.358607    -1.005818
H    -3.437104    -2.917570    -0.408588
O    -2.720314    -3.410550    -0.829155
H    -2.009623    -2.779958    -1.046680
H     2.769324     0.133057     2.923237
O     2.867836    -0.049762     3.885010
H     2.958603     0.843115     4.289834
H    -3.526631     6.387845    -0.560163
O    -3.287018     7.051755    -1.258411
H    -3.145506     7.895880    -0.786664
H     3.900555     0.588346     1.176369
O     2.950080     0.406289     1.292010
H     2.712901    -0.345257     0.711510
H    -5.778677     0.852738    -1.620775
O    -4.869449     1.177804    -1.484823
H    -4.982010     2.007709    -0.977175
H    -1.212613     5.403293     2.196405
O    -1.837828     4.656494     2.079653
H    -1.916372     4.237733     2.941966
H     3.493668     2.767564     0.416140
O     3.247668     2.725747    -0.523443
H     3.579194     1.882780    -0.873881
H     1.492194    -4.691085    -2.263794
O     1.556331    -3.914268    -1.690159
H     2.351108    -3.452604    -2.040134
H    -0.920911    -0.076007    -2.562222
O    -0.277207     0.568523    -2.883477
H    -0.024366     1.156850    -2.148967
H     1.697652    -4.679886    -0.191863
O     1.803763    -5.317486     0.550484
H     1.340105    -6.128172     0.253851
H    -1.224703    -3.257117    -2.896957
O    -1.051629    -3.941684    -3.556963
H    -0.925610    -4.787947    -3.086797
H    -2.784639     3.315034     4.688837
O    -1.803363     3.312187     4.656181
H    -1.511594     2.909825     5.492440
H     0.959351     5.039536     4.064381
O     0.013406     5.272268     4.116637
H    -0.459292     4.468972     4.372755
H    -1.732054    -4.643148    -0.387789
O    -0.967693    -5.185397    -0.103121
H    -1.316108    -5.871135     0.475874
H    -3.912407     5.839758    -2.617851
O    -4.267861     5.006224    -2.943023
H    -4.111919     4.965280    -3.911852
H    -2.434346    -3.682267     1.919331
O    -2.453534    -4.586917     2.294358
H    -1.514021    -4.825076     2.436337
H    -4.693259    -2.970605    -2.918792
O    -3.841924    -3.206754    -3.325085
H    -3.511006    -3.997993    -2.856222
H     0.334612     1.382004     4.601960
O     0.841996     2.141644     4.269385
H     0.889583     2.800806     4.976109
H    -4.655644    -5.161889    -1.589971
O    -5.358698    -4.808864    -1.017537
H    -5.146206    -5.162409    -0.132843
H     2.328094    -6.475925    -4.052338
O     1.989815    -6.147445    -3.199252
H     2.423641    -6.721015    -2.535390
H     0.468504    -3.371451    -4.020025
O     1.272696    -3.006993    -4.442585
H     0.955772    -2.632082    -5.289882
H     1.960134    -1.748185     2.969708
O     2.115256    -2.679184     2.752561
H     1.429932    -2.892177     2.084759
H    -3.022196    -1.842854    -3.166740
O    -2.581766    -0.960260    -3.133359
H    -3.260660    -0.310878    -3.406588
H    -3.190405     4.982755     1.063591
O    -3.971652     5.357013     0.609154
H    -4.387173     5.914557     1.315006
H     0.873882     2.258812     2.579022
O     0.975679     2.254511     1.607992
H     1.702348     1.631077     1.443838
H     0.191799     5.662561    -0.771401
O     0.715673     6.324781    -1.277954
H     0.855699     7.124343    -0.721751
H     0.342932     7.041519     2.579250
O    -0.018906     6.661513     1.761608
H     0.644788     5.990635     1.500053
H    -2.483776     0.221837     3.324876
O    -2.706498    -0.592208     3.829626
H    -1.946439    -0.632084     4.451857
H    -0.900037     0.559076     6.011012
O    -0.625757     0.039366     5.236873
H     0.087536    -0.564126     5.523876
H     0.705571    -4.988545     1.966255
O     0.162423    -5.098570     2.770043
H     0.306893    -6.019154     3.042191
H    -2.122822    -8.081188     0.430806
O    -1.800842    -7.594158     1.216653
H    -2.587245    -7.281971     1.671882
H    -0.375111     6.871160    -2.337362
O    -1.120170     7.294362    -2.835560
H    -1.911513     7.164935    -2.274531
H    -1.113693     4.316126     0.558616
O    -0.738932     4.377967    -0.336396
H    -1.444692     4.135224    -0.970890
H    -4.412137     2.754601     3.489707
O    -4.412085     2.924702     4.454503
H    -4.495830     2.041519     4.863082
H     2.018194    -3.577853     4.231444
O     1.953997    -4.050763     5.084307
H     2.460097    -3.514095     5.715738
H     4.685145    -3.190719     0.828735
O     4.525623    -3.115077    -0.137904
H     3.666979    -2.637110    -0.221948
H    -2.722348    -0.739596    -1.369052
O    -3.050604    -0.472595    -0.493882
H    -3.849578     0.056289    -0.701087
H    -1.571904    -0.820923    -4.651842
O    -1.016206    -0.563709    -5.416348
H    -0.288985    -0.044522    -5.041861
H     1.797206    -1.708662    -3.389113
O     1.890671    -0.962879    -2.765522
H     1.112129    -0.385419    -2.893618
H     3.658883    -3.118101     2.539422
O     4.617910    -3.347690     2.467018
H     4.672043    -4.307823     2.593802
H     3.420355    -6.117611     3.111125
O     3.776832    -5.917247     2.211112
H     3.040107    -5.570513     1.667823
H    -3.347523     1.585603    -4.131571
O    -4.211676     1.139862    -3.922356
H    -4.399175     1.298200    -2.959814
H    -5.081437     4.156681     0.049289
O    -5.522956     3.291607    -0.049798
H    -6.451253     3.411889    -0.336694
H     6.734098    -1.179001    -1.371003
O     5.961751    -1.029306    -0.819411
H     5.541841    -1.896774    -0.622769
H     4.593938    -3.164136    -2.480873
O     3.726593    -2.992770    -2.897772
H     3.730494    -3.611281    -3.653995
H     4.428260    -2.290818     5.611215
O     4.084860    -2.756528     6.404086
H     4.419374    -3.661688     6.322212
H    -0.757001     6.343169     5.062488
O    -1.353777     6.919252     5.600334
H    -1.366719     7.796276     5.158725
H     4.698841    -0.132398    -1.475915
O     3.932236     0.410584    -1.739302
H     3.239419    -0.189205    -2.070278
H    -0.741709     4.528674    -4.051303
O    -1.521240     5.076182    -4.258125
H    -1.366646     5.942021    -3.836606
H     0.661142     3.210333    -2.671157
O     0.673219     3.588595    -3.578561
H     0.710742     2.826282    -4.166086
H    -5.388283    -5.185114     1.774355
O    -4.691712    -5.780319     1.419532
H    -3.851170    -5.364769     1.690886
H     7.883037    -1.686809    -4.041583
O     7.624789    -1.373854    -3.142070
H     7.138171    -0.529697    -3.298572
H     3.702545    -5.067198    -5.301839
O     4.465073    -4.694172    -4.820713
H     4.848671    -5.405138    -4.274227
H    -3.789511     0.025166     4.917535
O    -4.390425     0.489009     5.550314
H    -5.051337    -0.168782     5.840954
H     3.461609    -5.937749    -0.531616
O     4.334514    -5.690955    -0.849258
H     4.411160    -4.728668    -0.704985
H     5.001992    -0.330908    -4.170907
O     4.467487    -1.042643    -4.561339
H     4.140158    -1.625248    -3.843461
H    -1.139659     1.586521    -3.901756
O    -1.821429     2.186389    -4.265009
H    -1.499605     2.531117    -5.124666
H     4.883146    -6.317760    -2.326332
O     5.216380    -6.643020    -3.191790
H     6.034227    -7.123959    -3.004536
H     8.739561    -5.089339    -2.926345
O     8.047682    -5.506926    -2.368633
H     8.081979    -6.464248    -2.470744
H     2.338111     4.724843     0.440395
O     1.759472     4.706753     1.212031
H     1.400595     3.786916     1.288446
H    -4.421527    -2.626876     4.213166
O    -5.315236    -2.287109     4.010013
H    -5.177430    -1.505882     3.434639
H    -5.849919    -3.187066     1.297827
O    -6.313658    -3.744140     1.965706
H    -6.125477    -3.308815     2.816428
H     1.680989     3.472793     6.850937
O     1.058606     3.988614     6.316744
H     0.275217     4.141943     6.887630
H     4.995656    -2.165997     3.605968
O     5.016047    -1.447987     4.270315
H     4.204523    -0.891164     4.113070
H     2.383218    -5.572434     4.825491
O     2.762912    -6.456630     4.565844
H     2.017604    -7.037598     4.391107
H     2.259821    -4.510067    -6.802958
O     2.089036    -4.998805    -5.987899
H     1.824515    -4.307538    -5.332192
H     6.437029    -4.100141    -0.512549
O     7.189775    -4.503698    -0.048950
H     7.697507    -4.926286    -0.769471
H    -1.730975     4.495491     7.686768
O    -0.832542     4.593320     8.073262
H    -0.651200     5.552423     8.097410
H    -5.162076     5.792949    -5.540197
O    -4.549963     5.029474    -5.620084
H    -3.785144     5.316658    -6.147368
H     3.286316    -2.520981    -8.448380
O     3.197624    -3.054893    -7.648048
H     4.073530    -3.030457    -7.217591
H    -0.657198     8.833723    -2.290374
O    -0.533194     9.663002    -1.772220
H     0.228407     9.487700    -1.194966
H     2.060218    -0.908056     5.199141
O     1.487251    -1.434152     5.786269
H     1.580303    -1.088627     6.683478
H     5.207725    -2.019587    -5.703258
O     5.553761    -2.785942    -6.225511
H     5.279769    -3.575799    -5.707943
H     5.687722    -5.212296     4.675921
O     5.165164    -5.127536     5.502407
H     4.443228    -5.758939     5.416072
H    -3.981000     1.153057     6.990195
O    -3.789528     1.628456     7.834465
H    -4.665638     2.014525     8.094436
H    -1.847805     9.622162    -0.759474
O    -2.708324     9.497174    -0.284604
H    -3.319495     10.124234    -0.674799
H    -5.944103     4.696730    -2.963472
O    -6.851733     4.572509    -3.310565
H    -6.753758     3.873844    -3.989120
H     0.090732    -7.058161    -1.157503
O     0.554257    -7.495049    -0.410021
H    -0.125266    -7.689013     0.238749
H    -7.633922     3.800680    -1.996910
O    -7.898741     3.215929    -1.256204
H    -7.754314     2.306472    -1.592766
H     3.965986    -0.889135     6.975521
O     3.975208     0.075014     6.967168
H     4.787594     0.364801     6.535629
H     2.259828     5.801583    -1.190674
O     3.195584     5.508920    -1.076254
H     3.371841     4.968592    -1.869464
H     6.545908    -5.926770     0.662508
O     6.176663    -6.663233     1.195627
H     5.272124    -6.385769     1.422086
H    -3.874673     4.736254     7.764573
O    -3.307491     4.273214     7.106309
H    -3.501580     3.329887     7.216185
H     5.757683    -7.942248     0.127642
O     5.470223    -8.629274    -0.510241
H     4.641347    -8.303449    -0.904852
H    -0.564548     2.047400     7.679543
O    -1.197297     1.983006     6.944087
H    -2.066162     1.841812     7.339913
H    -6.384793    -0.111932     1.043675
O    -6.706161    -0.197932     0.131410
H    -7.625292    -0.466735     0.150942
H    -5.374915    -3.054745    -0.607248
O    -5.123293    -2.353622     0.019664
H    -5.691723    -1.579426    -0.167886
H     4.317454     5.582087     0.310088
O     4.651281     5.682668     1.215407
H     3.956578     6.192904     1.667442
H    -9.045548    -1.735335    -2.273482
O    -8.496877    -1.534236    -1.488319
H    -8.624816    -2.270095    -0.849834
H    -5.530916     3.515357    -5.587452
O    -6.041901     2.803731    -5.152651
H    -5.361444     2.286925    -4.669163
H     3.182089    -0.882574    -5.667039
O     2.327092    -1.002334    -6.134696
H     2.413203    -1.851645    -6.607168
H     8.116177    -1.346374    -6.037286
O     8.124022    -2.210607    -5.581236
H     7.267696    -2.610086    -5.832036
H     7.623664     0.993928    -6.318035
O     7.434761     0.145944    -6.732011
H     6.453376     0.096370    -6.768450
H    -7.864761    -3.682146     0.910189
O    -8.542909    -3.575665     0.225399
H    -8.444144    -4.335217    -0.375941
H    -2.406745     8.744333     1.278398
O    -2.256424     8.156075     2.031803
H    -1.486778     7.602221     1.809007
H    -4.445537     6.444108     3.480593
O    -4.615543     6.870669     2.624393
H    -3.851456     7.455719     2.484633
H     3.403450     3.451680    -3.588146
O     3.250539     4.420957    -3.494998
H     2.285359     4.484956    -3.602993
H    -6.114454    -1.591863    -3.464671
O    -6.199657    -2.173309    -2.683031
H    -6.981804    -1.865380    -2.171959
H     6.462757     1.053068     4.730612
O     6.068808     1.591772     5.433627
H     6.256562     2.510518     5.142406
H     1.363536     1.730299    -5.833528
O     1.173136     1.133086    -5.079546
H     1.536505     0.270845    -5.351459
H    -2.498184     2.970438     10.468570
O    -2.286317     2.062632     10.195688
H    -2.883257     1.863335     9.462574
H     7.623018    -0.495439     3.075393
O     6.873166     0.080589     3.243664
H     6.180212    -0.519275     3.622583
H    -5.664173    -8.044939    -0.719127
O    -4.929959    -8.114178    -0.072123
H    -4.933512    -7.296805     0.449818
H    -5.223985    -0.109271    -4.687291
O    -5.821529    -0.828702    -4.969330
H    -6.684741    -0.394424    -5.101631
H     1.883810    -0.191833    -7.529413
O     1.673965     0.274002    -8.374585
H     2.262080    -0.122163    -9.023314
H     4.875839    -1.387566    -9.313833
O     3.951197    -1.157775    -9.597414
H     3.932448    -1.277042    -10.546291
H     7.557473    -2.568004     4.191668
O     7.705525    -2.604519     3.232388
H     7.211531    -3.394811     2.960102
H     6.714309    -5.891919     2.675721
O     6.775684    -5.216851     3.376971
H     7.651277    -5.302067     3.795382
H    -1.821663     8.954970     3.482530
O    -1.574851     9.259624     4.381244
H    -2.424111     9.392354     4.835723
H    -7.429760     1.666779    -5.230474
O    -7.989613     0.896768    -5.005116
H    -8.900913     1.275786    -4.899419
H     6.928953    -1.079165    -8.413326
O     6.346965    -1.800025    -8.677520
H     6.118445    -2.249759    -7.845626
H    -1.665226     6.292589    -6.960663
O    -2.043875     5.448749    -6.697849
H    -1.797102     5.344461    -5.727425
H    -0.006843     3.317305     9.009905
O     0.189715     2.397559     9.265551
H    -0.609268     2.133721     9.771113
H     6.754858    -2.776113    -2.713778
O     6.224014    -3.520360    -2.373332
H     6.692620    -4.331229    -2.619322
H    -4.099896    -3.116412    -4.904259
O    -4.224100    -3.008930    -5.876879
H    -4.759788    -2.204465    -5.936941
H     1.972457     2.189200     8.453498
O     2.636977     2.301464     7.764061
H     3.058871     1.431066     7.648745
H    -6.911215    -5.191762    -1.413889
O    -7.826763    -5.460936    -1.660469
H    -7.959602    -5.058028    -2.543223
H    -3.831338     5.264679     5.681197
O    -3.798045     6.033422     5.090895
H    -2.863926     6.327222     5.185159
H    -7.886370     0.097395    -1.984849
O    -7.397007     0.821238    -2.398150
H    -7.622652     0.811278    -3.351320
H     5.835081     0.134152     0.402737
O     5.613217     0.855895     1.023298
H     6.122596     0.660621     1.836684
H    -6.221489     3.321141     7.378380
O    -6.094733     2.802843     8.207226
H    -6.695153     2.041732     8.118307
H     2.273255    -8.068056    -0.853874
O     2.950532    -8.055849    -1.549867
H     2.725717    -8.769992    -2.162874
H    -2.744903    -3.952774    -6.211098
O    -1.991718    -4.519001    -5.979778
H    -1.715207    -4.228688    -5.081829
H    -5.648477     3.771028     5.291859
O    -6.297677     4.167867     5.908880
H    -6.133700     5.111846     5.895288
H    -1.021393    -7.107377    -3.177173
O    -0.549407    -6.437558    -2.648837
H     0.358684    -6.368652    -3.028397
H     4.439449     2.021469     5.119154
O     3.498027     2.261077     4.998409
H     3.113021     2.277672     5.879957
H     4.104491     4.662319     6.290864
O     4.186379     5.392437     5.672889
H     3.619133     5.152204     4.901517
H     2.761163     3.623277     3.911612
O     2.584415     4.563516     3.745727
H     2.465241     4.662088     2.779148
H     9.392316     0.213121    -1.077762
O     8.586141     0.376678    -0.584715
H     8.409221    -0.441959    -0.091686
H    -2.108751     5.329434     10.636115
O    -2.831084     4.701133     10.867212
H    -3.050057     4.878820     11.782143
H     7.969197    -3.006388     0.320087
O     8.390985    -2.160130     0.575385
H     8.324031    -2.154779     1.537622
H     5.367831     3.669410     3.515686
O     6.023557     3.934470     4.182704
H     5.610618     4.652721     4.683938
H    -4.216512     5.032110     9.768855
O    -4.849301     5.183390     9.046659
H    -5.461153     4.434765     9.043534
H    -7.012241    -3.466978    -3.504263
O    -7.632670    -4.078899    -3.953156
H    -7.111107    -4.521779    -4.654236
H     0.019894     6.136722     10.757759
O    -0.844326     6.468848     10.510192
H    -0.727873     6.898874     9.643655
H     2.590493     1.503362    -4.116150
O     3.470345     1.853310    -3.877976
H     3.788254     1.338932    -3.106242
H    -6.980374    -0.207350     7.201498
O    -7.489166     0.571077     7.481727
H    -8.111220     0.755238     6.776822
H    -2.749124    -9.865096    -0.844091
O    -2.685703    -8.923619    -1.004793
H    -3.591409    -8.556564    -0.764263
H    -10.065932     3.090977    -4.917504
O    -10.181313     2.172259    -4.639847
H    -10.398777     2.254036    -3.690143
H    -2.074965    -3.015808     4.599755
O    -2.950059    -3.455725     4.668927
H    -2.943738    -4.073254     3.912444
H    -0.186057    -7.975211     2.472773
O     0.640150    -7.765606     2.921378
H     1.358701    -8.061528     2.334931
H     6.698222    -2.371416     6.383978
O     7.147604    -3.081810     5.921310
H     6.516999    -3.816076     5.882529
H    -5.280666    -1.992718     6.926967
O    -5.956805    -1.494781     6.442669
H    -5.939617    -1.871403     5.533320
H     0.844426     3.040674    -7.124641
O     1.761433     2.706760    -7.185747
H     1.742006     1.957930    -7.809420
H    -3.957901     8.766358     6.656816
O    -3.955797     8.764557     5.699449
H    -4.080807     7.837073     5.431328
H    -2.055165     10.321982    -2.752098
O    -2.956443     10.505515    -3.053923
H    -2.883306     11.137632    -3.768306
H     9.403464    -4.058596     4.037946
O     9.123400    -4.736569     4.660559
H     8.693289    -4.263957     5.384191
H    -0.735597    -5.990108    -5.853451
O    -0.032735    -6.557378    -5.520305
H     0.803314    -6.096010    -5.736619
H     1.826848     8.281727     0.652131
O     1.524390     8.604578    -0.225217
H     2.339029     8.641138    -0.755760
H     3.501718     2.934040    -6.673166
O     4.329383     2.643396    -6.263874
H     4.083481     2.370899    -5.354696
H     3.734766     7.130190    -1.241265
O     3.942133     8.065740    -1.454456
H     4.311092     8.009209    -2.347838
H     4.397886    -0.002112    -7.922209
O     4.774647     0.143621    -7.052640
H     4.593226     1.075712    -6.808465
H     6.029185     1.937540    -0.485392
O     6.595447     2.129892    -1.246673
H     7.419530     1.649907    -1.051686
H     6.679102    -8.427593    -1.614923
O     7.315624    -8.217551    -2.351235
H     7.682344    -9.052065    -2.638278
H    -5.302902    -5.777849    -5.423991
O    -5.918589    -5.105639    -5.741361
H    -5.366771    -4.336928    -5.974737
H     0.678275     7.181329     7.588223
O    -0.223472     7.209527     7.947212
H    -0.778369     7.224298     7.129217
H    -8.898194    -2.822258    -4.120576
O    -9.419262    -2.013659    -3.955133
H    -9.131410    -1.348863    -4.584357
H    -2.413254    -5.980041    -2.156693
O    -3.291571    -5.694547    -2.425636
H    -3.478275    -6.068812    -3.311351
H    -2.987435    -5.892316    -5.423309
O    -3.589106    -6.501346    -4.952736
H    -3.107891    -7.321620    -4.783693
H    -1.258284     3.791373    -7.011983
O    -0.798484     3.000050    -6.686036
H    -1.017411     2.226002    -7.259215
H    -0.141592     0.418868    -8.241549
O    -1.035284     0.620442    -7.911742
H    -1.104653     0.128725    -7.066857
H    -10.421383     4.066062    -2.754755
O    -10.489348     3.286568    -2.187899
H    -9.660062     3.260094    -1.678487
H     4.578523     4.085876     1.710129
O     4.370635     3.165116     1.989788
H     5.085704     2.588842     1.707302
H     6.486539     1.401989    -4.228797
O     6.183433     0.777623    -3.535087
H     6.213156     1.273342    -2.691343
H     9.630167    -2.223673    -0.936403
O     9.907412    -2.009833    -1.836144
H     9.107496    -1.670456    -2.279943
H     9.967283    -3.318918    -3.105146
O     9.700704    -3.970814    -3.780457
H     9.307407    -3.462983    -4.500783
H    -7.704071    -8.563223    -1.682403
O    -6.966011    -7.969408    -1.811966
H    -7.343014    -7.056104    -1.801797
H     4.163041     6.086378    -3.831641
O     4.824827     6.787156    -3.747420
H     5.660472     6.332610    -3.608590
H     0.095052    -8.163890    -5.227333
O     0.117891    -9.146765    -5.095506
H     0.269674    -9.510655    -5.967786
H    -2.337884    -8.664844    -2.729613
O    -2.103848    -8.401787    -3.639394
H    -1.456771    -9.020355    -3.997129
H     2.178158    -10.810759    -3.505606
O     2.132838    -9.856169    -3.482055
H     1.347697    -9.585046    -4.008400
H     6.837409     3.334163    -4.583798
O     6.896063     2.656137    -5.284867
H     6.102558     2.789329    -5.825587
H    -3.573368    -3.712436     7.705881
O    -3.687447    -2.924688     7.175711
H    -3.435492    -3.163664     6.257546
H    -0.637095    -3.359767    -6.735609
O    -0.007460    -2.628053    -6.751134
H    -0.482997    -1.856257    -6.395284
H     0.633724     0.469543     8.739824
O     0.641468    -0.245857     8.099918
H    -0.280918    -0.533988     8.011349
H    -5.832440     7.380014    -4.264598
O    -6.339329     6.765879    -4.827031
H    -6.618956     6.028504    -4.240962
H    -4.274591     9.113360    -3.278962
O    -4.812545     8.318999    -3.171307
H    -4.402759     7.836981    -2.434748
H    -9.707556     5.809794    -4.666149
O    -10.241436     5.004526    -4.505384
H    -11.122787     5.208244    -4.820210
H     2.765265     6.522651     6.128324
O     1.805225     6.619671     6.226267
H     1.461121     5.706624     6.123042
H     4.804787     8.552755     0.073073
O     5.122523     8.553973     0.993933
H     5.528008     7.689068     1.125362
H     4.139939    -7.420744    -4.352485
O     3.382235    -7.705703    -4.895307
H     3.101449    -8.546278    -4.518705
H     0.375614     8.667788     4.220760
O     1.053905     8.023470     3.993488
H     1.279131     7.530180     4.808179
H     5.236533     4.196606    -3.168358
O     6.198013     4.165626    -3.115332
H     6.405963     3.584585    -2.366939
H    -2.585956    -1.534777     7.558631
O    -2.075299    -0.742001     7.779469
H    -2.701160    -0.115121     8.152536
H    -9.026545     7.947815    -4.164210
O    -8.962350     7.364144    -4.921602
H    -8.004167     7.200090    -5.053805
H     3.523528    -8.973896     1.080594
O     2.846596    -8.342095     1.328600
H     3.320947    -7.536701     1.609033
H     3.584526     8.178565     1.818053
O     2.794170     7.614944     1.930196
H     2.347080     7.851228     2.755669
N    -3.739199     1.473521    -7.083217
H    -4.628125     1.288558    -7.398522
H    -3.152626     1.066902    -7.732615
