603

H     0.200507     3.030800    -0.679925
O     0.723195     2.362263    -1.173004
H     1.661878     2.489878    -0.897964
H    -0.085467    -1.311632     3.144919
O     0.306675    -0.611332     2.600710
H    -0.169368     0.202669     2.835316
H    -2.399809     2.412527    -0.542032
O    -2.191973     1.940757     0.281985
H    -2.205853     0.993347     0.055845
H    -4.670410     0.548544     2.171314
O    -4.989620    -0.384570     2.180062
H    -4.478654    -0.861182     1.517684
H     0.057931    -0.310845     0.946074
O    -0.139746    -0.072316     0.019628
H     0.202917     0.823264    -0.099850
H    -0.167427    -3.582615     3.768691
O    -0.446465    -2.752708     4.189636
H     0.198935    -2.583590     4.892508
H    -4.889878     2.533218     1.321000
O    -4.252663     2.120400     1.935920
H    -3.408617     2.103379     1.425041
H    -3.246286     3.903124    -2.217298
O    -2.510419     3.304166    -1.985926
H    -2.150174     3.017940    -2.845399
H    -0.133778    -3.806726     0.494337
O     0.205972    -2.989332     0.912696
H    -0.581079    -2.502924     1.224709
H    -2.386240    -1.539770     2.459715
O    -2.199592    -2.005541     1.618026
H    -2.452602    -1.415571     0.889058
H     2.068594    -1.445287    -1.125084
O     2.298500    -1.699021    -0.207476
H     1.508675    -2.126856     0.174670
H    -1.394951     1.823315     1.907146
O    -1.490782     1.424206     2.782046
H    -1.475118     2.135218     3.448522
H     0.203520    -2.702855    -1.577997
O    -0.552089    -2.090931    -1.631980
H    -0.372058    -1.365016    -0.997633
H    -3.441445    -2.921627    -0.402213
O    -2.728018    -3.414884    -0.827509
H    -2.014435    -2.786405    -1.041858
H     2.764101     0.121746     2.932285
O     2.861078    -0.062312     3.893891
H     2.953222     0.829823     4.300050
H    -3.527286     6.383535    -0.545493
O    -3.287425     7.046436    -1.244739
H    -3.145217     7.891032    -0.773527
H     3.896166     0.577656     1.186867
O     2.945195     0.396734     1.301142
H     2.708368    -0.354854     0.720566
H    -5.782944     0.851228    -1.618066
O    -4.872187     1.175962    -1.488492
H    -4.982415     2.004581    -0.976845
H    -1.214518     5.394913     2.209296
O    -1.839974     4.648312     2.091092
H    -1.918923     4.228915     2.953159
H     3.490893     2.758075     0.427916
O     3.243495     2.716323    -0.511483
H     3.576393     1.874129    -0.862656
H     1.485455    -4.697098    -2.259505
O     1.549033    -3.919922    -1.686052
H     2.345103    -3.459571    -2.034981
H    -0.922497    -0.082056    -2.554030
O    -0.288260     0.570570    -2.877404
H    -0.027292     1.151878    -2.139763
H     1.690185    -4.688250    -0.187916
O     1.795154    -5.325859     0.554373
H     1.331893    -6.136664     0.256793
H    -1.228959    -3.262368    -2.890052
O    -1.058306    -3.944981    -3.552291
H    -0.931218    -4.792986    -3.084975
H    -2.788462     3.305380     4.699748
O    -1.807314     3.300987     4.666599
H    -1.515855     2.898299     5.502934
H     0.956303     5.028038     4.077824
O     0.010279     5.260732     4.128935
H    -0.462364     4.457603     4.385620
H    -1.740061    -4.650434    -0.384198
O    -0.975359    -5.190850    -0.098617
H    -1.323625    -5.880269     0.476508
H    -3.913669     5.838284    -2.601775
O    -4.264748     5.004992    -2.933372
H    -4.108160     4.971464    -3.901355
H    -2.439955    -3.689928     1.923832
O    -2.461692    -4.593931     2.299433
H    -1.522586    -4.835652     2.439201
H    -4.698866    -2.973617    -2.913316
O    -3.847467    -3.206595    -3.320076
H    -3.515748    -4.000584    -2.855512
H     0.329502     1.369957     4.612046
O     0.835739     2.130265     4.279249
H     0.885379     2.788094     4.987165
H    -4.597842    -5.148062    -1.570778
O    -5.339940    -4.851138    -1.006707
H    -5.055987    -5.147630    -0.115358
H     2.320648    -6.480649    -4.049280
O     1.982354    -6.152434    -3.195971
H     2.415339    -6.727601    -2.532814
H     0.463812    -3.376008    -4.014735
O     1.267269    -3.008764    -4.435896
H     0.949942    -2.636087    -5.284653
H     1.953858    -1.759387     2.976934
O     2.107949    -2.690223     2.758706
H     1.422892    -2.902379     2.090529
H    -3.016645    -1.803119    -3.221881
O    -2.594769    -0.917076    -3.154130
H    -3.248512    -0.270168    -3.474925
H    -3.192108     4.976640     1.076206
O    -3.973358     5.350631     0.621290
H    -4.388487     5.908595     1.327561
H     0.869923     2.248679     2.589473
O     0.971434     2.244554     1.618315
H     1.698671     1.621568     1.454325
H     0.191879     5.656957    -0.756498
O     0.714411     6.318836    -1.264243
H     0.856979     7.117943    -0.707479
H     0.341231     7.031728     2.594292
O    -0.020379     6.652293     1.776162
H     0.643625     5.981724     1.514641
H    -2.488853     0.213183     3.332637
O    -2.712830    -0.601627     3.835518
H    -1.953257    -0.642803     4.458585
H    -0.906676     0.546309     6.019210
O    -0.632842     0.027270     5.244395
H     0.080372    -0.576760     5.531123
H     0.696990    -4.998673     1.969711
O     0.152833    -5.108470     2.772877
H     0.296613    -6.029560     3.044242
H    -2.133071    -8.088289     0.429784
O    -1.808594    -7.599046     1.212660
H    -2.594736    -7.293815     1.672875
H    -0.374965     6.866213    -2.323237
O    -1.120554     7.287142    -2.822995
H    -1.911175     7.161159    -2.260280
H    -1.115173     4.309244     0.572263
O    -0.741333     4.370662    -0.323434
H    -1.447473     4.130478    -0.956854
H    -4.416347     2.746573     3.499113
O    -4.416407     2.915778     4.463783
H    -4.500679     2.032466     4.871971
H     2.010125    -3.590661     4.237095
O     1.944071    -4.063603     5.089691
H     2.451622    -3.528791     5.721553
H     4.678775    -3.201666     0.835743
O     4.519497    -3.124485    -0.130866
H     3.661200    -2.646382    -0.214671
H    -2.726526    -0.745006    -1.361290
O    -3.057171    -0.477559    -0.487265
H    -3.854241     0.052835    -0.695536
H    -1.615711    -0.754253    -4.639403
O    -1.108599    -0.537900    -5.442910
H    -0.398121     0.057564    -5.156841
H     1.792614    -1.713707    -3.382493
O     1.884258    -0.967780    -2.758196
H     1.108048    -0.389499    -2.890228
H     3.651745    -3.130313     2.545953
O     4.610614    -3.359916     2.473612
H     4.664371    -4.320302     2.599316
H     3.411198    -6.129849     3.114660
O     3.768188    -5.927776     2.215216
H     3.031493    -5.581321     1.671826
H    -3.341841     1.617827    -4.186537
O    -4.187545     1.147616    -3.996848
H    -4.405592     1.293737    -3.040548
H    -5.082898     4.151524     0.060100
O    -5.522984     3.286258    -0.045235
H    -6.452651     3.407972    -0.328066
H     6.729554    -1.188543    -1.361154
O     5.956392    -1.038801    -0.810625
H     5.536661    -1.906484    -0.614394
H     4.588422    -3.171939    -2.474097
O     3.721181    -2.999343    -2.890950
H     3.725171    -3.617366    -3.647770
H     4.420225    -2.306471     5.618927
O     4.075407    -2.772666     6.410850
H     4.410094    -3.677789     6.328804
H    -0.759490     6.331639     5.076230
O    -1.356494     6.907275     5.614166
H    -1.368360     7.784976     5.173875
H     4.695130    -0.140574    -1.466346
O     3.928380     0.402691    -1.729447
H     3.235997    -0.197056    -2.061041
H    -0.738410     4.528220    -4.038460
O    -1.520648     5.071960    -4.246455
H    -1.368655     5.938178    -3.823071
H     0.660844     3.205206    -2.659070
O     0.668962     3.582787    -3.567195
H     0.717001     2.820006    -4.153507
H    -5.304999    -5.130163     1.852228
O    -4.628376    -5.749666     1.500355
H    -3.783492    -5.320038     1.760458
H     7.879278    -1.695160    -4.031807
O     7.620531    -1.382680    -3.132147
H     7.134823    -0.538140    -3.288294
H     3.697265    -5.071614    -5.297283
O     4.459164    -4.699039    -4.814795
H     4.842678    -5.411057    -4.269514
H    -3.795508     0.015171     4.924744
O    -4.397602     0.479001     5.556171
H    -5.057845    -0.179126     5.847628
H     3.453573    -5.946983    -0.527814
O     4.326668    -5.700039    -0.844740
H     4.403935    -4.738061    -0.699563
H     4.999877    -0.337638    -4.160485
O     4.463887    -1.047735    -4.551772
H     4.136894    -1.631943    -3.835022
H    -1.171935     1.576859    -3.941891
O    -1.821873     2.197874    -4.327868
H    -1.462626     2.530635    -5.173130
H     4.875820    -6.325961    -2.322549
O     5.209501    -6.649799    -3.188250
H     6.026547    -7.132247    -3.001137
H     8.733048    -5.099302    -2.919560
O     8.040458    -5.516801    -2.362673
H     8.074294    -6.474083    -2.465644
H     2.336977     4.715555     0.454314
O     1.756498     4.697228     1.224567
H     1.398287     3.777211     1.300820
H    -4.430142    -2.637422     4.216333
O    -5.323084    -2.295410     4.011973
H    -5.182491    -1.511827     3.440727
H    -5.792039    -3.119015     1.310815
O    -6.298304    -3.648224     1.977662
H    -6.082916    -3.203593     2.825166
H     1.676087     3.457871     6.862949
O     1.054116     3.974349     6.328834
H     0.270841     4.127952     6.899905
H     4.988734    -2.180015     3.614019
O     5.008933    -1.462458     4.278939
H     4.197865    -0.905332     4.121918
H     2.372882    -5.586253     4.829331
O     2.752585    -6.469857     4.568432
H     2.007405    -7.050811     4.393013
H     2.255222    -4.511634    -6.798857
O     2.084074    -5.000785    -5.984109
H     1.819890    -4.310308    -5.327960
H     6.430408    -4.110908    -0.506388
O     7.182723    -4.514977    -0.042595
H     7.690482    -4.937626    -0.763129
H    -1.735672     4.482296     7.698439
O    -0.837167     4.578930     8.084898
H    -0.655217     5.537888     8.110806
H    -5.112106     5.704165    -5.601828
O    -4.505574     4.939792    -5.622163
H    -3.747296     5.154028    -6.186921
H     3.283195    -2.522573    -8.441837
O     3.193679    -3.055422    -7.640837
H     4.069989    -3.033125    -7.211159
H    -0.653957     8.829424    -2.275033
O    -0.531038     9.657068    -1.754963
H     0.230524     9.481464    -1.177617
H     2.053321    -0.921842     5.207474
O     1.478462    -1.447282     5.793242
H     1.572377    -1.103903     6.691197
H     5.204403    -2.024712    -5.695075
O     5.550239    -2.790771    -6.217550
H     5.275284    -3.581029    -5.701029
H     5.678511    -5.227513     4.681112
O     5.155241    -5.142616     5.507163
H     4.433582    -5.774283     5.420443
H    -3.987598     1.141672     6.997955
O    -3.796024     1.616251     7.842392
H    -4.671917     2.002665     8.102784
H    -1.846679     9.616614    -0.743068
O    -2.707874     9.490257    -0.269916
H    -3.317846     10.120119    -0.657455
H    -5.945884     4.698569    -2.946479
O    -6.854602     4.579727    -3.290796
H    -6.764066     3.878635    -3.969098
H     0.082478    -7.064590    -1.156744
O     0.545905    -7.500741    -0.408910
H    -0.134254    -7.697394     0.238440
H    -7.637186     3.801570    -1.983641
O    -7.900247     3.213233    -1.245071
H    -7.756969     2.305468    -1.586529
H     3.958302    -0.905694     6.984667
O     3.967570     0.058470     6.976179
H     4.780888     0.348058     6.546280
H     2.259567     5.794136    -1.176442
O     3.194600     5.500301    -1.061312
H     3.371759     4.961025    -1.854957
H     6.537755    -5.938698     0.667417
O     6.167730    -6.675172     1.199875
H     5.263252    -6.397406     1.426046
H    -3.879029     4.723956     7.775925
O    -3.312436     4.261264     7.116728
H    -3.506456     3.317909     7.226509
H     5.748007    -7.953342     0.130200
O     5.460296    -8.639360    -0.508513
H     4.631711    -8.312854    -0.903132
H    -0.570456     2.033263     7.689191
O    -1.203088     1.969838     6.953416
H    -2.071985     1.828698     7.349179
H    -6.387022    -0.115294     1.047045
O    -6.708389    -0.205089     0.134830
H    -7.631100    -0.460857     0.155130
H    -5.380885    -3.062175    -0.607782
O    -5.131239    -2.363104     0.021639
H    -5.695667    -1.585492    -0.165574
H     4.316809     5.572059     0.325575
O     4.649589     5.671343     1.231330
H     3.955149     6.181995     1.683264
H    -9.057217    -1.712382    -2.361477
O    -8.544914    -1.492800    -1.553283
H    -8.673177    -2.202678    -0.889585
H    -5.521584     3.481889    -5.535933
O    -6.039521     2.770713    -5.122633
H    -5.373385     2.184896    -4.708891
H     3.179736    -0.886733    -5.658112
O     2.324104    -1.005584    -6.124849
H     2.409915    -1.853976    -6.599454
H     8.113707    -1.352966    -6.027091
O     8.120464    -2.217325    -5.571333
H     7.264321    -2.616391    -5.823372
H     7.622594     0.988302    -6.306009
O     7.433205     0.140607    -6.720284
H     6.451889     0.091591    -6.757610
H    -7.921703    -3.534233     0.957888
O    -8.628473    -3.512805     0.286820
H    -8.367315    -4.183136    -0.375719
H    -2.406321     8.737498     1.293786
O    -2.257188     8.147822     2.046274
H    -1.487060     7.594466     1.823987
H    -4.447563     6.436233     3.493090
O    -4.616517     6.862714     2.636550
H    -3.852678     7.448493     2.498382
H     3.401993     3.445733    -3.575564
O     3.249384     4.415004    -3.481274
H     2.284767     4.480829    -3.590099
H    -6.118872    -1.597448    -3.456050
O    -6.209087    -2.177607    -2.672695
H    -6.989405    -1.862098    -2.165392
H     6.457110     1.037048     4.742468
O     6.062547     1.575510     5.445354
H     6.252023     2.494289     5.155643
H     1.363163     1.725659    -5.824910
O     1.166738     1.129066    -5.071664
H     1.530639     0.266208    -5.341743
H    -2.504604     2.954728     10.478881
O    -2.293073     2.047216     10.204699
H    -2.890287     1.848980     9.471596
H     7.617001    -0.510056     3.085967
O     6.867257     0.066127     3.254369
H     6.174150    -0.533949     3.632630
H    -5.689367    -8.205260    -0.418860
O    -4.880618    -8.240782     0.141285
H    -4.830712    -7.374819     0.574035
H    -5.179355    -0.109757    -4.725316
O    -5.798079    -0.820917    -4.963310
H    -6.634414    -0.377288    -5.165133
H     1.891657    -0.193701    -7.518672
O     1.691070     0.279183    -8.362240
H     2.268133    -0.125738    -9.015225
H     4.874479    -1.389771    -9.305650
O     3.949846    -1.159605    -9.588636
H     3.930595    -1.276880    -10.537777
H     7.550106    -2.584135     4.200234
O     7.697577    -2.619094     3.240803
H     7.204234    -3.409550     2.967734
H     6.705226    -5.905775     2.680810
O     6.766812    -5.231145     3.382514
H     7.642112    -5.317606     3.801353
H    -1.822298     8.945620     3.498652
O    -1.575279     9.249017     4.397586
H    -2.424407     9.382135     4.852249
H    -7.389310     1.579844    -5.262854
O    -7.965331     0.836456    -5.018010
H    -8.866729     1.237712    -4.943411
H     6.927880    -1.082716    -8.403348
O     6.345175    -1.802698    -8.668257
H     6.116295    -2.253425    -7.837060
H    -1.669531     6.249164    -7.023843
O    -2.068592     5.424226    -6.750975
H    -1.820950     5.292513    -5.787284
H    -0.012471     3.301537     9.021413
O     0.183128     2.381195     9.275472
H    -0.615853     2.117453     9.781089
H     6.749796    -2.785100    -2.705730
O     6.217999    -3.529092    -2.366257
H     6.686132    -4.340181    -2.612704
H    -4.081725    -3.063735    -4.957191
O    -4.236774    -2.950800    -5.921727
H    -4.781192    -2.155921    -5.978183
H     1.966389     2.172707     8.464530
O     2.630773     2.285061     7.774969
H     3.052458     1.414577     7.659404
H    -6.924028    -5.257256    -1.466678
O    -7.876446    -5.408040    -1.693159
H    -7.969456    -4.972458    -2.571698
H    -3.834594     5.254624     5.693180
O    -3.800662     6.023168     5.102583
H    -2.866607     6.316989     5.198090
H    -7.890837     0.101364    -1.981024
O    -7.396739     0.822061    -2.393944
H    -7.624955     0.813304    -3.347457
H     5.830562     0.122776     0.413322
O     5.608442     0.843838     1.034683
H     6.117784     0.647474     1.847946
H    -6.226912     3.310819     7.387341
O    -6.100223     2.791596     8.215554
H    -6.701322     2.031134     8.126404
H     2.263983    -8.076268    -0.853271
O     2.941414    -8.063099    -1.549086
H     2.716882    -8.776703    -2.162970
H    -2.748620    -3.952799    -6.209586
O    -1.997403    -4.521404    -5.976369
H    -1.720366    -4.230287    -5.079249
H    -5.652340     3.762590     5.301682
O    -6.302397     4.158827     5.918007
H    -6.137195     5.102628     5.906893
H    -1.029832    -7.111127    -3.175206
O    -0.557864    -6.440539    -2.647364
H     0.350585    -6.373292    -3.026509
H     4.434175     2.006455     5.130752
O     3.492848     2.246861     5.009897
H     3.107836     2.262652     5.891492
H     4.100795     4.646421     6.305312
O     4.182925     5.377087     5.688015
H     3.615820     5.137902     4.916377
H     2.757771     3.610453     3.924584
O     2.580986     4.550811     3.759211
H     2.462883     4.650422     2.792758
H     9.388415     0.201571    -1.065564
O     8.581736     0.364712    -0.573162
H     8.404745    -0.454300    -0.080734
H    -2.113983     5.313091     10.648831
O    -2.836978     4.685095     10.878669
H    -3.056140     4.861656     11.793794
H     7.962906    -3.018871     0.328264
O     8.384418    -2.172741     0.584607
H     8.317819    -2.168800     1.546876
H     5.363924     3.655640     3.529664
O     6.019774     3.919710     4.196741
H     5.607490     4.637781     4.698752
H    -4.221155     5.018690     9.780292
O    -4.853259     5.170441     9.057534
H    -5.465977     4.422552     9.054340
H    -7.017554    -3.465528    -3.502800
O    -7.636155    -4.082644    -3.947463
H    -7.116051    -4.521140    -4.653136
H     0.015260     6.119304     10.772138
O    -0.848800     6.451455     10.524054
H    -0.731592     6.882942     9.658411
H     2.588578     1.496118    -4.105943
O     3.466926     1.847982    -3.866188
H     3.786209     1.332033    -3.095813
H    -6.987681    -0.217528     7.207245
O    -7.495596     0.561407     7.487317
H    -8.118013     0.746218     6.782947
H    -2.755869    -9.871369    -0.852966
O    -2.692871    -8.930523    -1.017738
H    -3.588587    -8.562733    -0.752842
H    -10.066996     3.090420    -4.912527
O    -10.184776     2.173259    -4.631038
H    -10.401658     2.258674    -3.681579
H    -2.083448    -3.025650     4.604449
O    -2.959774    -3.463611     4.671399
H    -2.950948    -4.083228     3.916500
H    -0.196201    -7.985629     2.473266
O     0.629877    -7.774616     2.921465
H     1.348503    -8.071890     2.335784
H     6.689801    -2.389068     6.392769
O     7.138817    -3.098845     5.928841
H     6.508210    -3.833078     5.889369
H    -5.288692    -2.003790     6.931530
O    -5.964087    -1.505175     6.446683
H    -5.946989    -1.881945     5.537793
H     0.840337     3.038260    -7.116048
O     1.757501     2.706206    -7.171162
H     1.743708     1.959386    -7.797863
H    -3.959338     8.755917     6.671516
O    -3.956673     8.754181     5.714149
H    -4.082589     7.826916     5.445868
H    -2.052456     10.319044    -2.735205
O    -2.953670     10.501417    -3.037852
H    -2.880814     11.136348    -3.749774
H     9.395347    -4.075555     4.045723
O     9.114003    -4.753859     4.667373
H     8.684496    -4.281635     5.391592
H    -0.741339    -5.990798    -5.852898
O    -0.039348    -6.558141    -5.517946
H     0.797269    -6.098189    -5.734559
H     1.827120     8.272931     0.668828
O     1.524853     8.595535    -0.208835
H     2.340091     8.633353    -0.738494
H     3.501919     2.932086    -6.660954
O     4.328767     2.640579    -6.251133
H     4.082446     2.366316    -5.342733
H     3.735612     7.122050    -1.224538
O     3.942388     8.057733    -1.437095
H     4.312572     8.001968    -2.330043
H     4.396875    -0.005146    -7.912336
O     4.772773     0.139922    -7.042205
H     4.592194     1.071946    -6.798249
H     6.026661     1.926638    -0.472186
O     6.592689     2.119899    -1.233409
H     7.416650     1.639242    -1.039226
H     6.669950    -8.437653    -1.612562
O     7.306714    -8.226925    -2.348414
H     7.672628    -9.061335    -2.636852
H    -5.305690    -5.777634    -5.427839
O    -5.925278    -5.103240    -5.732540
H    -5.374720    -4.335617    -5.973215
H     0.675494     7.166638     7.603445
O    -0.226406     7.194648     7.962020
H    -0.781082     7.210842     7.144053
H    -8.903796    -2.821299    -4.120321
O    -9.421040    -2.012125    -3.947642
H    -9.138500    -1.346181    -4.578267
H    -2.423717    -5.982909    -2.153173
O    -3.300385    -5.694908    -2.425313
H    -3.482676    -6.067979    -3.313061
H    -2.995431    -5.891958    -5.421644
O    -3.596523    -6.501225    -4.949783
H    -3.114626    -7.322232    -4.784581
H    -1.386182     3.734861    -6.985927
O    -0.847447     2.978105    -6.714749
H    -1.084187     2.193873    -7.266014
H    -0.201809     0.425594    -8.221047
O    -1.097923     0.661321    -7.938143
H    -1.274082     0.137217    -7.140834
H    -10.423503     4.067107    -2.746312
O    -10.490959     3.287461    -2.179464
H    -9.662233     3.261404    -1.669553
H     4.576164     4.074049     1.723947
O     4.366271     3.152968     2.000967
H     5.082057     2.576604     1.720385
H     6.484831     1.394887    -4.216634
O     6.180124     0.770591    -3.523533
H     6.211071     1.265204    -2.679230
H     9.624894    -2.235977    -0.926522
O     9.902624    -2.020785    -1.825774
H     9.103015    -1.681016    -2.269704
H     9.962359    -3.329161    -3.096311
O     9.695106    -3.980293    -3.772019
H     9.302876    -3.471658    -4.492342
H    -7.882004    -8.080480    -0.467020
O    -7.239124    -8.204193    -1.185930
H    -7.384595    -7.400635    -1.710504
H     4.164387     6.080083    -3.816311
O     4.825984     6.780641    -3.729791
H     5.661697     6.325847    -3.592104
H     0.087708    -8.165894    -5.227814
O     0.109759    -9.148689    -5.096377
H     0.260499    -9.512699    -5.968788
H    -2.347676    -8.667785    -2.733256
O    -2.112127    -8.401424    -3.642180
H    -1.467102    -9.021427    -4.001238
H     2.168706    -10.815488    -3.506970
O     2.124382    -9.860808    -3.483526
H     1.339037    -9.589283    -4.009347
H     6.837348     3.327484    -4.569707
O     6.895356     2.649701    -5.270956
H     6.102683     2.784231    -5.812462
H    -3.583502    -3.724367     7.709506
O    -3.697004    -2.936571     7.179238
H    -3.444016    -3.175509     6.261392
H    -0.641167    -3.355368    -6.733526
O    -0.010529    -2.624409    -6.739294
H    -0.491771    -1.848692    -6.397639
H     0.626443     0.453082     8.748954
O     0.633597    -0.260871     8.107449
H    -0.288796    -0.548880     8.018993
H    -5.828479     7.379503    -4.256104
O    -6.331593     6.761383    -4.817848
H    -6.620190     6.030866    -4.227209
H    -4.272782     9.111728    -3.264956
O    -4.809196     8.315912    -3.159706
H    -4.401923     7.835716    -2.420633
H    -9.708125     5.811939    -4.654988
O    -10.242453     5.007553    -4.492963
H    -11.122381     5.209887    -4.812757
H     2.762457     6.508001     6.143938
O     1.802333     6.605371     6.240784
H     1.458002     5.692451     6.137391
H     4.805777     8.542774     0.091447
O     5.121988     8.542411     1.012782
H     5.528294     7.677762     1.143305
H     4.132552    -7.426411    -4.350130
O     3.374344    -7.709203    -4.893293
H     3.093048    -8.550669    -4.518986
H     0.375231     8.656560     4.237472
O     1.052145     8.011125     4.009287
H     1.277652     7.517588     4.823818
H     5.236141     4.188913    -3.153624
O     6.197495     4.157948    -3.099979
H     6.405190     3.575651    -2.352462
H    -2.594408    -1.548034     7.564587
O    -2.083580    -0.755209     7.784787
H    -2.708542    -0.128973     8.160361
H    -9.022364     7.951804    -4.153870
O    -8.959213     7.366314    -4.909953
H    -8.002163     7.202444    -5.045209
H     3.512347    -8.984841     1.081344
O     2.836555    -8.351814     1.329352
H     3.312190    -7.547738     1.610946
H     3.584196     8.167253     1.835031
O     2.792906     7.604546     1.946145
H     2.346302     7.840059     2.772125
N    -9.267951    -6.935392     0.417442
H    -9.229230    -6.400960     1.217298
H    -9.131249    -6.290837    -0.293053
