39
Coordinates from ORCA-job grain_mol_opt.QMRegion
  H   -3.75946367707345     -0.02426087791547      4.85953068734884
  O   -4.35343139047710      0.42246518959618      5.51878917554962
  H   -5.04255822438424     -0.22865734053582      5.72710166213207
  H   -4.02129720109734      1.21094382232339      6.96484334657219
  O   -3.88965508117332      1.86847458313130      7.69274152279707
  H   -4.79185206221590      2.18338625691091      7.94370854902396
  H   -3.86998475777391      4.88759624853048      7.78883297027926
  O   -3.29940587547820      4.45070814584510      7.11574293909622
  H   -3.52927462631128      3.50156710314206      7.16037564828684
  H   -0.58135285783847      2.04840127072555      7.64098730546269
  O   -1.19876436811521      1.93450558406108      6.89908678570133
  H   -2.03892845345574      1.68711850508425      7.29729803405355
  H   -2.68691307893478      2.98508137626171     10.43701154556219
  O   -2.50888700778301      2.07493695186344     10.13344537728783
  H   -2.98165903111508      2.00805437809273      9.27825688742967
  H   -0.13394375951303      3.35242139893041      8.97768918266687
  O   0.14364912355227      2.45158123816192      9.25768513975418
  H   -0.64102553192189      2.15005449657505      9.75270697204866
  H   -6.44765726220318      3.34423292804894      7.34125876974906
  O   -6.25492618512054      2.94101309023662      8.22531896581269
  H   -6.80972889561301      2.15453314269262      8.31206548560633
  H   -6.47369915291992     -0.51154322517636      7.79369726666721
  O   -6.56655783157417      0.01305758334363      8.61407580989387
  H   -7.24345562851109     -0.45521600860199      9.11173023065757
  H   -5.18468669175806     -2.16374021597807      6.79903873059893
  O   -5.95559277252497     -1.66305533626194      6.46132253004372
  H   -6.02721644009722     -1.98061935184375      5.53543177167754
  H   -3.52853111615551     -3.81200492992502      7.59971273912674
  O   -3.55699702553461     -3.01495219098950      7.06300564835944
  H   -3.34752708430340     -3.31454844630466      6.14817734792134
  H   0.81523519793042      0.38720698403798      8.51681197923255
  O   0.77159493512557     -0.52528419878998      8.21519299614762
  H   -0.18737228816434     -0.70998235231653      8.16546212365198
  H   -2.37414394774874     -1.58408920628553      7.54299825141071
  O   -2.00530296069482     -0.78988728748971      7.95763634274439
  H   -2.59327856961637     -0.67254219642583      8.72923884410016
  O   -3.87372648190295     -0.48251382371342     10.07140661155582
  H   -3.56886321794179      0.36294813150480     10.43949748223831
  H   -4.70538953703280     -0.26280882358011      9.62279988309753
