603

H     0.188477     3.021690    -0.664342
O     0.712673     2.352536    -1.155030
H     1.649544     2.476337    -0.873460
H    -0.148727    -1.266382     3.068677
O     0.334543    -0.573018     2.589113
H    -0.126883     0.250858     2.830414
H    -2.414348     2.412691    -0.543466
O    -2.210850     1.939779     0.280880
H    -2.231950     0.992185     0.054437
H    -4.707024     0.557059     2.151108
O    -5.030450    -0.373594     2.157455
H    -4.520623    -0.855509     1.498148
H     0.026676    -0.320467     0.960590
O    -0.164027    -0.082377     0.031791
H     0.178168     0.813507    -0.085094
H    -0.350631    -3.568089     3.688670
O    -0.729175    -2.766500     4.087327
H    -0.482760    -2.828020     5.039437
H    -4.915945     2.541563     1.303169
O    -4.282029     2.130200     1.922240
H    -3.436173     2.107727     1.415204
H    -3.244608     3.907468    -2.222799
O    -2.510961     3.307370    -1.987442
H    -2.147678     3.018999    -2.844872
H    -0.175002    -3.812190     0.504313
O     0.167304    -3.000769     0.932333
H    -0.621875    -2.509970     1.233892
H    -2.432100    -1.543864     2.454445
O    -2.242455    -2.007575     1.612645
H    -2.492235    -1.416571     0.883796
H     2.042583    -1.462070    -1.097559
O     2.267146    -1.718659    -0.179286
H     1.472450    -2.142239     0.199495
H    -1.430245     1.817904     1.910581
O    -1.525439     1.419703     2.785901
H    -1.517620     2.131179     3.451706
H     0.177386    -2.711186    -1.565804
O    -0.574120    -2.095298    -1.626060
H    -0.397395    -1.371512    -0.988338
H    -3.477685    -2.920588    -0.416204
O    -2.759729    -3.413388    -0.835191
H    -2.045382    -2.784605    -1.043949
H     2.716503     0.098727     2.956901
O     2.822519    -0.078382     3.918950
H     2.907846     0.815789     4.322205
H    -3.527099     6.387718    -0.551676
O    -3.279935     7.050747    -1.248555
H    -3.138379     7.894160    -0.775274
H     3.863807     0.553476     1.222866
O     2.911807     0.376324     1.331616
H     2.673793    -0.374280     0.750252
H    -5.796106     0.862266    -1.641054
O    -4.885247     1.185954    -1.508493
H    -4.996509     2.013543    -0.995685
H    -1.236199     5.388584     2.218302
O    -1.863078     4.644306     2.094861
H    -1.950836     4.224419     2.955837
H     3.470608     2.735549     0.464861
O     3.231412     2.696642    -0.476515
H     3.561654     1.852797    -0.826174
H     1.455346    -4.709381    -2.241229
O     1.520386    -3.934150    -1.665510
H     2.318798    -3.475402    -2.010569
H    -0.933605    -0.085831    -2.549272
O    -0.293508     0.564133    -2.866866
H    -0.036971     1.143938    -2.126639
H     1.647798    -4.703129    -0.167145
O     1.748217    -5.343052     0.573999
H     1.280543    -6.150128     0.273290
H    -1.251094    -3.264423    -2.889483
O    -1.073803    -3.947137    -3.549994
H    -0.956546    -4.795520    -3.081336
H    -2.833530     3.301267     4.696055
O    -1.851788     3.295459     4.670970
H    -1.568884     2.886859     5.507796
H     0.920840     5.011978     4.099844
O    -0.024292     5.248638     4.145321
H    -0.502966     4.447439     4.397557
H    -1.778462    -4.650726    -0.387728
O    -1.017926    -5.196832    -0.099974
H    -1.374991    -5.880867     0.475940
H    -3.902104     5.845689    -2.610757
O    -4.254012     5.013842    -2.944889
H    -4.091899     4.980130    -3.911913
H    -2.493417    -3.695146     1.915037
O    -2.515136    -4.609928     2.264156
H    -1.580564    -4.840832     2.436611
H    -4.717769    -2.961810    -2.934923
O    -3.863503    -3.198033    -3.335409
H    -3.539903    -3.993630    -2.868271
H     0.275586     1.353705     4.627529
O     0.792437     2.110512     4.301500
H     0.832137     2.771524     5.006850
H    -4.698123    -5.155352    -1.610681
O    -5.403108    -4.799742    -1.042423
H    -5.198810    -5.156228    -0.156726
H     2.296920    -6.494357    -4.028136
O     1.955684    -6.165484    -3.176396
H     2.381360    -6.743135    -2.511054
H     0.451070    -3.383196    -4.001827
O     1.258907    -3.019443    -4.418251
H     0.947312    -2.644632    -5.268271
H     1.947445    -1.787547     2.964392
O     2.039109    -2.744941     2.830368
H     1.429899    -2.929473     2.085094
H    -3.029836    -1.798751    -3.230446
O    -2.603642    -0.914369    -3.161664
H    -3.254255    -0.265125    -3.483905
H    -3.207960     4.978236     1.071203
O    -3.983857     5.356983     0.611262
H    -4.402330     5.914746     1.315484
H     0.834328     2.234556     2.608967
O     0.944264     2.233192     1.638820
H     1.667452     1.604652     1.478473
H     0.190077     5.647600    -0.739352
O     0.719199     6.308079    -1.242432
H     0.859921     7.106209    -0.684049
H     0.323406     7.019764     2.613800
O    -0.033862     6.642608     1.792803
H     0.628851     5.969280     1.535259
H    -2.521153     0.278492     3.309901
O    -2.782846    -0.544036     3.785632
H    -2.028575    -0.607738     4.409037
H    -0.952705     0.624467     6.010571
O    -0.672249     0.078993     5.249085
H     0.116285    -0.433075     5.558813
H     0.618464    -5.109591     1.906612
O     0.103736    -5.172066     2.737453
H     0.199542    -6.108440     2.990984
H    -2.191128    -8.088901     0.422731
O    -1.870723    -7.605372     1.211402
H    -2.658317    -7.289561     1.662197
H    -0.361922     6.860347    -2.308214
O    -1.102514     7.284895    -2.812104
H    -1.897443     7.160834    -2.254860
H    -1.130143     4.303801     0.580067
O    -0.749787     4.365342    -0.312872
H    -1.452521     4.127512    -0.951248
H    -4.455857     2.750490     3.485802
O    -4.460116     2.918837     4.450655
H    -4.551106     2.034938     4.857065
H     1.870882    -3.613082     4.434543
O     1.977338    -4.095872     5.281422
H     2.661324    -3.566523     5.753010
H     4.632316    -3.227302     0.876180
O     4.481753    -3.149587    -0.091185
H     3.625227    -2.668446    -0.182067
H    -2.747499    -0.742642    -1.368724
O    -3.079318    -0.471362    -0.496512
H    -3.877150     0.056569    -0.707765
H    -1.616504    -0.754059    -4.639279
O    -1.101712    -0.539008    -5.438613
H    -0.391827     0.053809    -5.146213
H     1.781162    -1.726405    -3.359662
O     1.872624    -0.981529    -2.734116
H     1.098596    -0.400768    -2.869633
H     3.582304    -3.161860     2.594968
O     4.542744    -3.385957     2.516922
H     4.602161    -4.346717     2.637231
H     3.337698    -6.145947     3.144286
O     3.704023    -5.953254     2.248761
H     2.973851    -5.603689     1.696972
H    -3.336066     1.625213    -4.193681
O    -4.184564     1.158214    -4.010822
H    -4.409049     1.302469    -3.055376
H    -5.096102     4.161660     0.041455
O    -5.537363     3.297779    -0.067404
H    -6.465332     3.421290    -0.355225
H     6.706595    -1.220942    -1.307925
O     5.932071    -1.069210    -0.759844
H     5.506732    -1.935190    -0.568714
H     4.566581    -3.195763    -2.435359
O     3.702697    -3.019532    -2.857226
H     3.708328    -3.636649    -3.614732
H     4.494018    -2.356035     5.629884
O     4.176453    -2.862731     6.417641
H     4.542599    -3.756631     6.269431
H    -0.796337     6.321605     5.088265
O    -1.393713     6.899325     5.623378
H    -1.400498     7.777102     5.183192
H     4.676775    -0.166101    -1.424413
O     3.914017     0.380428    -1.691431
H     3.220981    -0.215961    -2.028332
H    -0.722552     4.525029    -4.027484
O    -1.500913     5.072210    -4.240814
H    -1.349040     5.937255    -3.815203
H     0.662580     3.196082    -2.640332
O     0.679263     3.574630    -3.548029
H     0.726812     2.812008    -4.134592
H    -5.454660    -5.180412     1.748930
O    -4.760045    -5.779324     1.395732
H    -3.917704    -5.368819     1.668583
H     7.871901    -1.729833    -3.970350
O     7.608682    -1.417105    -3.071960
H     7.127068    -0.570559    -3.230847
H     3.685700    -5.088826    -5.265575
O     4.446585    -4.720492    -4.777891
H     4.823075    -5.434685    -4.230883
H    -3.852055     0.016129     4.914472
O    -4.457311     0.482537     5.541384
H    -5.119064    -0.175785     5.829115
H     3.407539    -5.967539    -0.500470
O     4.285846    -5.724771    -0.806430
H     4.364073    -4.762556    -0.663413
H     4.998342    -0.361285    -4.116545
O     4.463204    -1.069731    -4.511853
H     4.128299    -1.652588    -3.797698
H    -1.167047     1.574965    -3.936170
O    -1.811278     2.199744    -4.325494
H    -1.445908     2.531072    -5.168517
H     4.841145    -6.350825    -2.283067
O     5.179137    -6.675346    -3.146808
H     5.993361    -7.160675    -2.955270
H     8.706402    -5.137408    -2.854808
O     8.009518    -5.553054    -2.301787
H     8.039926    -6.510244    -2.406479
H     2.324024     4.698319     0.484714
O     1.740095     4.681389     1.252360
H     1.376968     3.762728     1.324990
H    -4.518390    -2.640909     4.188753
O    -5.406900    -2.275175     3.984446
H    -5.246340    -1.497305     3.413383
H    -5.903008    -3.180842     1.273824
O    -6.373228    -3.737098     1.936888
H    -6.190790    -3.300963     2.789870
H     1.616113     3.440738     6.888197
O     0.999858     3.958524     6.350067
H     0.212598     4.114295     6.915751
H     4.928073    -2.210612     3.657324
O     4.947276    -1.496408     4.326307
H     4.142401    -0.930852     4.159316
H     2.288796    -5.708238     4.868280
O     2.679607    -6.575555     4.597490
H     1.953371    -7.156568     4.349037
H     2.255284    -4.523990    -6.775490
O     2.078576    -5.012866    -5.961780
H     1.811186    -4.321630    -5.307337
H     6.392032    -4.142679    -0.456532
O     7.139232    -4.550297     0.012700
H     7.650523    -4.973817    -0.704972
H    -1.795616     4.471404     7.703748
O    -0.898383     4.565174     8.095280
H    -0.714724     5.523694     8.123397
H    -5.081708     5.718339    -5.618142
O    -4.477249     4.952264    -5.635256
H    -3.714892     5.164223    -6.195209
H     3.301356    -2.537055    -8.410440
O     3.205328    -3.070725    -7.610762
H     4.078727    -3.051279    -7.175316
H    -0.634473     8.824421    -2.260211
O    -0.511347     9.651553    -1.739184
H     0.245555     9.472545    -1.156857
H     2.061806    -0.704988     5.256525
O     1.532564    -1.144289     5.950026
H     1.675088    -0.646371     6.769767
H     5.207067    -2.048153    -5.650968
O     5.554163    -2.815065    -6.171448
H     5.272110    -3.604698    -5.657844
H     5.604292    -5.260828     4.723955
O     5.075538    -5.175378     5.547269
H     4.351352    -5.803423     5.455753
H    -4.053423     1.143594     6.986016
O    -3.868597     1.623054     7.829730
H    -4.746321     2.007615     8.084033
H    -1.833760     9.615135    -0.735347
O    -2.698144     9.491959    -0.267353
H    -3.303756     10.123501    -0.658976
H    -5.936826     4.712936    -2.968754
O    -6.843197     4.599143    -3.320605
H    -6.750878     3.897156    -3.997868
H     0.038106    -7.072531    -1.149285
O     0.494623    -7.511935    -0.398746
H    -0.191224    -7.704941     0.243764
H    -7.637483     3.820601    -2.018665
O    -7.907183     3.233841    -1.281534
H    -7.765693     2.324876    -1.621154
H     3.892729    -0.934581     7.018487
O     3.899733     0.029524     7.016103
H     4.712973     0.323453     6.588544
H     2.261272     5.778046    -1.145142
O     3.194699     5.480848    -1.024469
H     3.374612     4.941435    -1.817443
H     6.485578    -5.971446     0.716804
O     6.110163    -6.705618     1.249092
H     5.203839    -6.426478     1.465099
H    -3.937979     4.723059     7.766305
O    -3.367160     4.259311     7.111849
H    -3.566744     3.316121     7.218414
H     5.691454    -7.983047     0.173145
O     5.405084    -8.667705    -0.467123
H     4.580291    -8.338051    -0.867379
H    -0.641470     2.024662     7.699829
O    -1.263058     1.953672     6.956640
H    -2.136860     1.818854     7.344397
H    -6.422795    -0.104052     1.019035
O    -6.738499    -0.182413     0.103781
H    -7.657978    -0.450781     0.116276
H    -5.414775    -3.047290    -0.628432
O    -5.162465    -2.346428    -0.001356
H    -5.728827    -1.571360    -0.190351
H     4.307857     5.547184     0.369629
O     4.635238     5.644220     1.277664
H     3.939860     6.157513     1.725289
H    -9.067793    -1.708517    -2.318639
O    -8.524488    -1.510867    -1.528632
H    -8.659777    -2.247782    -0.892705
H    -5.499033     3.497249    -5.556768
O    -6.022846     2.788368    -5.147250
H    -5.362307     2.198961    -4.729351
H     3.186194    -0.903039    -5.626361
O     2.333371    -1.018180    -6.098898
H     2.418201    -1.866870    -6.572968
H     8.120774    -1.386912    -5.963419
O     8.121472    -2.251652    -5.508231
H     7.265366    -2.647164    -5.766329
H     7.639819     0.956422    -6.244071
O     7.450278     0.109478    -6.659808
H     6.468978     0.064203    -6.703965
H    -7.917581    -3.666173     0.870760
O    -8.589904    -3.555290     0.180739
H    -8.490835    -4.314804    -0.420508
H    -2.410000     8.736206     1.297250
O    -2.267073     8.145916     2.050456
H    -1.498144     7.589436     1.832020
H    -4.473887     6.440326     3.481482
O    -4.635424     6.868895     2.624570
H    -3.868293     7.451520     2.491939
H     3.410797     3.427136    -3.538890
O     3.261373     4.396919    -3.444732
H     2.297580     4.466128    -3.559617
H    -6.130262    -1.579936    -3.485219
O    -6.221562    -2.160531    -2.703320
H    -7.007703    -1.850822    -2.199381
H     6.403123     1.001282     4.797129
O     6.005444     1.538900     5.499005
H     6.199185     2.457904     5.211368
H     1.380711     1.716570    -5.802693
O     1.178243     1.120513    -5.050713
H     1.538917     0.255965    -5.319473
H    -2.587222     2.945303     10.477155
O    -2.376322     2.037917     10.202098
H    -2.970545     1.844046     9.464933
H     7.568492    -0.548440     3.146119
O     6.819219     0.028813     3.312771
H     6.122264    -0.569658     3.684344
H    -5.724212    -8.035724    -0.752108
O    -4.994198    -8.108969    -0.100762
H    -4.998714    -7.292834     0.423345
H    -5.175289    -0.095307    -4.748298
O    -5.793478    -0.803787    -4.994792
H    -6.628338    -0.358096    -5.197684
H     1.912487    -0.203632    -7.494558
O     1.719847     0.270738    -8.339117
H     2.299280    -0.136375    -8.988577
H     4.902793    -1.409418    -9.263158
O     3.980899    -1.175734    -9.551862
H     3.967221    -1.291800    -10.501241
H     7.487853    -2.623409     4.257980
O     7.639550    -2.658697     3.299414
H     7.145871    -3.447512     3.022679
H     6.637868    -5.940547     2.731854
O     6.697118    -5.268267     3.436719
H     7.570956    -5.357335     3.858385
H    -1.839202     8.940550     3.505948
O    -1.596715     9.242469     4.406682
H    -2.448295     9.377979     4.856092
H    -7.376160     1.602322    -5.297172
O    -7.956174     0.860260    -5.058242
H    -8.856592     1.263765    -4.988007
H     6.951186    -1.110432    -8.347269
O     6.368100    -1.828481    -8.616527
H     6.131752    -2.278627    -7.787105
H    -1.627601     6.252295    -7.017274
O    -2.031069     5.428198    -6.748422
H    -1.790855     5.294544    -5.783086
H    -0.083226     3.283511     9.036007
O     0.107312     2.362049     9.290508
H    -0.697917     2.102864     9.789585
H     6.730060    -2.816410    -2.652374
O     6.194357    -3.558807    -2.315355
H     6.660173    -4.371315    -2.561373
H    -4.087719    -3.054572    -4.973131
O    -4.233534    -2.939424    -5.939029
H    -4.777204    -2.144072    -5.997837
H     1.889454     2.148715     8.492723
O     2.557234     2.256732     7.805431
H     2.985766     1.389671     7.695539
H    -6.954649    -5.175932    -1.450001
O    -7.869333    -5.441381    -1.703572
H    -7.994494    -5.036252    -2.586467
H    -3.879476     5.254516     5.684264
O    -3.838597     6.024145     5.095387
H    -2.904114     6.313777     5.197081
H    -7.902582     0.119258    -2.018441
O    -7.406860     0.841416    -2.427541
H    -7.628017     0.832506    -3.382367
H     5.801686     0.092740     0.462206
O     5.578638     0.814087     1.082950
H     6.081724     0.615795     1.899052
H    -6.290720     3.318334     7.360698
O    -6.172534     2.799361     8.190190
H    -6.773425     2.039267     8.095607
H     2.211444    -8.092249    -0.833989
O     2.895859    -8.082355    -1.523078
H     2.672367    -8.793528    -2.140166
H    -2.749558    -3.947301    -6.217830
O    -1.999798    -4.516960    -5.981678
H    -1.729466    -4.228485    -5.081675
H    -5.699531     3.769177     5.280203
O    -6.351618     4.168661     5.892462
H    -6.183303     5.111876     5.881678
H    -1.061484    -7.113617    -3.175876
O    -0.589079    -6.447172    -2.643390
H     0.320836    -6.380965    -3.018299
H     4.382716     1.979910     5.172262
O     3.442745     2.222293     5.046175
H     3.051232     2.242865     5.924497
H     4.049342     4.618988     6.346944
O     4.139708     5.348893     5.730033
H     3.576058     5.112985     4.954588
H     2.717750     3.588889     3.955490
O     2.547201     4.530318     3.791022
H     2.434252     4.631704     2.823894
H     9.368666     0.159667    -0.993550
O     8.560414     0.325518    -0.504611
H     8.376585    -0.493993    -0.015699
H    -2.190456     5.303285     10.651326
O    -2.915936     4.676699     10.876529
H    -3.142282     4.854994     11.789530
H     7.922768    -3.057113     0.388507
O     8.345945    -2.212978     0.648634
H     8.273211    -2.209216     1.610314
H     5.328460     3.624642     3.578274
O     5.979188     3.882887     4.253006
H     5.567328     4.604567     4.750273
H    -4.293959     5.015661     9.768916
O    -4.920419     5.171893     9.042418
H    -5.535992     4.426298     9.032883
H    -7.034037    -3.448092    -3.537334
O    -7.653997    -4.055933    -3.992002
H    -7.129646    -4.499381    -4.690754
H    -0.058395     6.102761     10.788411
O    -0.919878     6.437853     10.535489
H    -0.796314     6.869359     9.670706
H     2.593696     1.481536    -4.076446
O     3.472188     1.829305    -3.830519
H     3.783646     1.311712    -3.058234
H    -7.058413    -0.209104     7.175970
O    -7.566008     0.571518     7.451956
H    -8.184133     0.756784     6.743880
H    -2.816872    -9.867842    -0.860450
O    -2.747652    -8.926379    -1.018765
H    -3.653615    -8.555607    -0.783680
H    -10.050398     3.123133    -4.961345
O    -10.173981     2.205720    -4.683305
H    -10.396339     2.288948    -3.735015
H    -2.339530    -3.163709     4.397899
O    -3.200435    -3.610852     4.595577
H    -3.242857    -4.265123     3.875698
H    -0.267919    -7.994128     2.481081
O     0.557190    -7.786256     2.932796
H     1.276748    -8.087592     2.350453
H     6.615810    -2.425288     6.445753
O     7.065730    -3.135233     5.983021
H     6.435877    -3.869280     5.937715
H    -5.356591    -2.009978     6.913131
O    -6.021056    -1.503779     6.427414
H    -6.006697    -1.876893     5.514806
H     0.870694     3.031694    -7.095870
O     1.787250     2.696785    -7.145913
H     1.774396     1.950274    -7.772952
H    -3.998309     8.755530     6.665009
O    -3.987925     8.755063     5.707700
H    -4.116166     7.828667     5.437323
H    -2.023968     10.319657    -2.728191
O    -2.922554     10.506075    -3.036124
H    -2.842770     11.140500    -3.747751
H     9.328729    -4.123073     4.113167
O     9.038759    -4.799558     4.732861
H     8.609981    -4.324446     5.455465
H    -0.752520    -5.992952    -5.848846
O    -0.054011    -6.563338    -5.511448
H     0.785109    -6.105321    -5.722228
H     1.825797     8.256782     0.699111
O     1.530795     8.581690    -0.180035
H     2.349453     8.616510    -0.704528
H     3.528677     2.915176    -6.624122
O     4.351911     2.620519    -6.209155
H     4.098492     2.346572    -5.302594
H     3.742262     7.100453    -1.183055
O     3.954529     8.035506    -1.393181
H     4.329713     7.979155    -2.283995
H     4.420860    -0.024166    -7.871583
O     4.792521     0.119110    -6.999320
H     4.613004     1.051450    -6.755588
H     6.009308     1.896802    -0.420693
O     6.581723     2.088256    -1.177495
H     7.402389     1.604251    -0.978049
H     6.623002    -8.469780    -1.563972
O     7.265759    -8.260462    -2.294776
H     7.630330    -9.095781    -2.582311
H    -5.321369    -5.762760    -5.449845
O    -5.932737    -5.087499    -5.768885
H    -5.376161    -4.321399    -5.999639
H     0.625148     7.149678     7.625322
O    -0.278738     7.179841     7.978448
H    -0.828347     7.198633     7.156956
H    -8.913149    -2.793134    -4.166547
O    -9.431317    -1.982476    -4.002294
H    -9.136873    -1.317986    -4.628942
H    -2.455882    -5.982134    -2.163713
O    -3.329976    -5.690669    -2.439693
H    -3.512453    -6.063604    -3.326992
H    -3.006952    -5.885397    -5.434917
O    -3.613217    -6.493254    -4.968532
H    -3.136417    -7.315918    -4.799099
H    -1.353876     3.736326    -6.979793
O    -0.818892     2.977674    -6.706499
H    -1.055887     2.194458    -7.259124
H    -0.174145     0.423257    -8.209614
O    -1.071032     0.662501    -7.932404
H    -1.254797     0.138383    -7.136705
H    -10.416361     4.098846    -2.798122
O    -10.491962     3.319547    -2.231932
H    -9.666518     3.287952    -1.716956
H     4.552136     4.047581     1.768633
O     4.339878     3.127128     2.046370
H     5.053798     2.548684     1.765488
H     6.490044     1.365424    -4.161947
O     6.179436     0.741579    -3.470983
H     6.205818     1.236025    -2.626493
H     9.595656    -2.278964    -0.854733
O     9.880002    -2.064017    -1.751910
H     9.084425    -1.721284    -2.200940
H     9.943138    -3.371869    -3.023103
O     9.677658    -4.021818    -3.700613
H     9.291916    -3.511413    -4.423236
H    -7.759717    -8.543576    -1.729827
O    -7.018134    -7.952930    -1.853664
H    -7.391271    -7.037936    -1.844436
H     4.183992     6.059130    -3.772663
O     4.847786     6.757060    -3.681522
H     5.680822     6.298920    -3.538874
H     0.064846    -8.170942    -5.221270
O     0.083945    -9.154139    -5.090821
H     0.238291    -9.517190    -5.963002
H    -2.387408    -8.666208    -2.740595
O    -2.144566    -8.402193    -3.647842
H    -1.498723    -9.023798    -4.002375
H     2.125194    -10.829529    -3.490043
O     2.084044    -9.874769    -3.464939
H     1.303697    -9.599411    -3.996465
H     6.851707     3.297148    -4.511174
O     6.911960     2.619523    -5.212399
H     6.123233     2.757200    -5.758933
H    -3.673347    -3.554067     7.783517
O    -3.757285    -2.869277     7.119061
H    -3.562244    -3.301521     6.252806
H    -0.636860    -3.356576    -6.727537
O    -0.002914    -2.628250    -6.729243
H    -0.483565    -1.851034    -6.389929
H     0.534355     0.515853     8.965329
O     0.481888    -0.272859     8.412576
H    -0.478668    -0.404564     8.284822
H    -5.801391     7.394523    -4.275503
O    -6.302845     6.779017    -4.841461
H    -6.597588     6.048271    -4.253742
H    -4.245166     9.120976    -3.272743
O    -4.785277     8.327134    -3.171904
H    -4.384733     7.844398    -2.430790
H    -9.682887     5.842773    -4.701767
O    -10.221130     5.040331    -4.543523
H    -11.098517     5.245760    -4.868233
H     2.719712     6.485072     6.177957
O     1.759554     6.585668     6.269778
H     1.411684     5.674613     6.162248
H     4.809083     8.516428     0.140980
O     5.120021     8.514271     1.064148
H     5.521802     7.647810     1.196450
H     4.106947    -7.447103    -4.317135
O     3.351829    -7.727343    -4.865722
H     3.064364    -8.567504    -4.493209
H     0.351792     8.642997     4.257998
O     1.028824     7.996062     4.034264
H     1.246297     7.500778     4.849791
H     5.244641     4.163625    -3.105025
O     6.205547     4.128985    -3.045121
H     6.406101     3.545471    -2.296670
H    -2.716547    -1.447957     7.551429
O    -2.234974    -0.649910     7.850159
H    -2.907703    -0.072834     8.230354
H    -8.993084     7.978466    -4.193154
O    -8.926836     7.395189    -4.950685
H    -7.969541     7.226678    -5.078739
H     3.445923    -9.007471     1.106310
O     2.771292    -8.373406     1.354912
H     3.247710    -7.570228     1.636931
H     3.575089     8.144235     1.876736
O     2.781798     7.583485     1.982629
H     2.329786     7.820609     2.805213
N    -0.287759    -3.375242     6.708192
H     0.575784    -3.711459     6.390496
H    -0.038903    -2.599085     7.221842
