42

H    -0.375885     6.888486    -2.238361
O    -1.134266     7.289863    -2.737759
H    -1.907284     7.172556    -2.137472
H    -0.994587     4.476146    -3.851475
O    -1.653516     5.111701    -4.181832
H    -1.445511     5.956231    -3.727174
H     0.700853     3.251039    -2.574232
O     0.674685     3.651639    -3.480678
H     0.660883     2.860659    -4.034241
H    -1.199227     1.475015    -3.881246
O    -1.806007     2.142171    -4.265895
H    -1.503337     2.361201    -5.169138
H     2.222471     5.828897    -1.168894
O     3.150669     5.527001    -1.021538
H     3.346302     4.916995    -1.756596
H     3.432600     3.386688    -3.532612
O     3.354997     4.373628    -3.469296
H     2.392206     4.468388    -3.533342
H     1.340591     1.583552    -5.842358
O     1.172440     1.011314    -5.061793
H     1.554326     0.151074    -5.346707
H    -1.345598     5.898845    -7.115080
O    -2.007892     5.306767    -6.748246
H    -1.791094     5.281841    -5.767358
H     2.652421     1.418554    -4.079926
O     3.525319     1.789983    -3.847778
H     3.837226     1.287804    -3.057924
H     0.730988     2.916352    -7.158650
O     1.690810     2.688280    -7.220147
H     1.721029     1.926453    -7.835143
H     3.516395     2.916006    -6.658223
O     4.349848     2.635149    -6.260639
H     4.107986     2.296658    -5.371325
H    -1.415672     3.708697    -6.973131
O    -0.925744     2.886866    -6.717095
H    -1.173924     2.141320    -7.315417
H     4.368393     6.283405    -3.941961
O     5.059869     6.921721    -3.720685
H     5.780628     6.354304    -3.417581
N     1.024415     5.760383    -6.136273
H     1.599405     5.133752    -6.588081
H     0.719938     5.277545    -5.359057
