30

H     3.475134    -3.026069    -8.576762
O     3.270319    -3.172485    -7.635061
H     4.142498    -3.149287    -7.201992
H     3.257299    -0.951765    -5.548893
O     2.609571    -0.897093    -6.290027
H     2.588684    -1.784523    -6.702625
H     7.587691     1.047110    -6.210092
O     7.405139     0.218268    -6.673003
H     6.440476     0.243246    -6.846841
H     1.797685     0.008298    -7.763615
O     1.472975     0.588439    -8.470371
H     2.109561     0.458237    -9.209939
H     5.308240    -2.265921    -9.617537
O     4.437113    -2.401604    -10.074589
H     4.621544    -3.007393    -10.798277
H     7.045408    -1.250848    -8.453133
O     6.670332    -2.130750    -8.594888
H     6.342158    -2.381624    -7.712655
H     0.728457     3.130792    -6.921467
O     1.665632     2.841426    -7.013891
H     1.637864     2.126238    -7.696463
H     3.465718     3.088685    -6.513163
O     4.303115     2.715125    -6.182417
H     4.057129     2.366082    -5.295470
H     4.093780    -0.092538    -7.155145
O     4.789379     0.480628    -7.525048
H     4.623364     1.351618    -7.068969
N     3.607097     0.370987    -10.098689
H     4.176193     0.517740    -9.316940
H     3.801104    -0.549952    -10.335247
