603

H     0.212746     3.036024    -0.685604
O     0.737652     2.370755    -1.180784
H     1.675783     2.500213    -0.905062
H    -0.056406    -1.308478     3.137494
O     0.332657    -0.606179     2.593587
H    -0.146442     0.205688     2.829175
H    -2.385942     2.409793    -0.545619
O    -2.174379     1.938837     0.277791
H    -2.187896     0.991147     0.051845
H    -4.647235     0.537521     2.168661
O    -4.962906    -0.396325     2.179723
H    -4.456008    -0.872271     1.513665
H     0.081052    -0.307012     0.939452
O    -0.117636    -0.067958     0.013241
H     0.222028     0.828737    -0.105040
H    -0.130883    -3.579457     3.760891
O    -0.412113    -2.750709     4.182702
H     0.233767    -2.580422     4.884870
H    -4.874584     2.521982     1.319426
O    -4.234634     2.112984     1.933948
H    -3.391509     2.097651     1.421762
H    -3.238183     3.898142    -2.219461
O    -2.499193     3.302625    -1.989301
H    -2.139865     3.016691    -2.849134
H    -0.100482    -3.803414     0.486539
O     0.236574    -2.984636     0.904160
H    -0.551710    -2.501171     1.217877
H    -2.358309    -1.543697     2.454779
O    -2.169094    -2.008159     1.613068
H    -2.426987    -1.419878     0.884423
H     2.090598    -1.433474    -1.133071
O     2.319255    -1.682266    -0.214383
H     1.533033    -2.116853     0.167442
H    -1.377636     1.822677     1.902145
O    -1.470210     1.423614     2.777384
H    -1.456501     2.134647     3.443728
H     0.233034    -2.696856    -1.585763
O    -0.523428    -2.086300    -1.640599
H    -0.346823    -1.361580    -1.003929
H    -3.412565    -2.928221    -0.408716
O    -2.694748    -3.417937    -0.831268
H    -1.985063    -2.785941    -1.046832
H     2.787778     0.133655     2.923532
O     2.885828    -0.049504     3.885077
H     2.975825     0.842677     4.290964
H    -3.524726     6.377285    -0.547337
O    -3.287372     7.041512    -1.246468
H    -3.147647     7.886099    -0.774654
H     3.918090     0.592604     1.177267
O     2.967331     0.411755     1.291703
H     2.730934    -0.341981     0.713328
H    -5.764840     0.836646    -1.617991
O    -4.855156     1.165989    -1.491572
H    -4.967996     1.993278    -0.978531
H    -1.206794     5.394868     2.206102
O    -1.830094     4.646696     2.087571
H    -1.907528     4.226186     2.949268
H     3.504453     2.772571     0.419086
O     3.258232     2.730991    -0.520687
H     3.591956     1.888806    -0.871187
H     1.527241    -4.685874    -2.271816
O     1.586958    -3.906602    -1.700686
H     2.385379    -3.446829    -2.041861
H    -0.902315    -0.080022    -2.560600
O    -0.269358     0.574208    -2.883687
H    -0.010983     1.156087    -2.145616
H     1.726841    -4.678122    -0.197557
O     1.830539    -5.315103     0.544646
H     1.372676    -6.128333     0.245834
H    -1.200746    -3.261480    -2.897235
O    -1.023944    -3.942394    -3.559684
H    -0.896529    -4.790502    -3.092464
H    -2.772631     3.299528     4.696280
O    -1.791387     3.299555     4.662702
H    -1.497943     2.896590     5.498195
H     0.966710     5.033964     4.072231
O     0.020125     5.264250     4.123962
H    -0.450263     4.459684     4.380540
H    -1.704396    -4.650721    -0.391238
O    -0.937881    -5.190059    -0.107763
H    -1.282791    -5.878318     0.470440
H    -3.911263     5.831708    -2.603165
O    -4.260135     4.997482    -2.934629
H    -4.104589     4.964477    -3.902720
H    -2.406545    -3.694272     1.917823
O    -2.423471    -4.599154     2.291794
H    -1.483096    -4.835619     2.432676
H    -4.670292    -2.981847    -2.917442
O    -3.817462    -3.212190    -3.324189
H    -3.484753    -4.005635    -2.859640
H     0.351795     1.374026     4.605205
O     0.854939     2.136571     4.272487
H     0.903130     2.793753     4.981010
H    -4.626047    -5.173973    -1.592789
O    -5.329133    -4.822943    -1.019092
H    -5.115547    -5.178026    -0.135226
H     2.355038    -6.472213    -4.060333
O     2.020506    -6.142421    -3.206513
H     2.458752    -6.715162    -2.543861
H     0.494580    -3.369110    -4.020801
O     1.295800    -2.999417    -4.445287
H     0.972904    -2.627366    -5.292247
H     1.982967    -1.750361     2.968387
O     2.138794    -2.680773     2.750247
H     1.454626    -2.894719     2.082151
H    -2.992327    -1.807207    -3.226000
O    -2.571866    -0.919834    -3.160853
H    -3.229371    -0.275261    -3.478377
H    -3.184146     4.971029     1.073689
O    -3.966292     5.343795     0.619334
H    -4.382945     5.899529     1.326341
H     0.887014     2.255015     2.582633
O     0.988787     2.252488     1.611455
H     1.716990     1.630616     1.447075
H     0.196048     5.661878    -0.761735
O     0.716581     6.325684    -1.269362
H     0.856518     7.124871    -0.712160
H     0.344533     7.036329     2.589644
O    -0.016309     6.656810     1.771244
H     0.648826     5.987485     1.509406
H    -2.465007     0.208698     3.328473
O    -2.685412    -0.606480     3.832078
H    -1.924750    -0.645594     4.453792
H    -0.880630     0.546012     6.013957
O    -0.605358     0.029059     5.238405
H     0.109610    -0.573617     5.524038
H     0.736448    -4.992798     1.961406
O     0.192355    -5.104752     2.764481
H     0.340596    -6.024974     3.036247
H    -2.085225    -8.089801     0.423095
O    -1.764521    -7.602205     1.209090
H    -2.551502    -7.293505     1.665601
H    -0.375747     6.870142    -2.327041
O    -1.122894     7.289093    -2.826114
H    -1.912787     7.160413    -2.262814
H    -1.105477     4.310152     0.567989
O    -0.732565     4.373589    -0.327994
H    -1.438496     4.130785    -0.960748
H    -4.399658     2.736363     3.497376
O    -4.399112     2.905388     4.462184
H    -4.480472     2.021485     4.869917
H     2.047181    -3.582076     4.227687
O     1.981649    -4.054154     5.080917
H     2.490346    -3.518948     5.711463
H     4.726494    -3.186783     0.809114
O     4.545348    -3.100278    -0.150438
H     3.684352    -2.627693    -0.216594
H    -2.703409    -0.748499    -1.366135
O    -3.031919    -0.480149    -0.491750
H    -3.833462     0.044154    -0.698088
H    -1.596950    -0.753788    -4.645734
O    -1.089093    -0.535886    -5.448819
H    -0.381659     0.062341    -5.161542
H     1.815536    -1.705026    -3.391470
O     1.909657    -0.957215    -2.770013
H     1.129718    -0.382579    -2.897213
H     3.687314    -3.117203     2.532683
O     4.647078    -3.340215     2.464333
H     4.707221    -4.300504     2.584901
H     3.455479    -6.115974     3.103150
O     3.809645    -5.915785     2.202843
H     3.072776    -5.567071     1.662098
H    -3.328835     1.614260    -4.188562
O    -4.172877     1.141800    -3.999221
H    -4.391094     1.285163    -3.042236
H    -5.074126     4.140896     0.058693
O    -5.510775     3.274103    -0.046571
H    -6.441450     3.391778    -0.327963
H     6.756322    -1.170731    -1.357656
O     5.972215    -1.023557    -0.823843
H     5.563619    -1.896180    -0.611448
H     4.600231    -3.217880    -2.510678
O     3.738869    -2.953541    -2.895319
H     3.666384    -3.562755    -3.651343
H     4.454494    -2.290552     5.607447
O     4.112126    -2.757800     6.399922
H     4.449447    -3.661980     6.316348
H    -0.752004     6.332042     5.072430
O    -1.350057     6.906013     5.611069
H    -1.365031     7.783645     5.170893
H     4.714661    -0.123895    -1.474206
O     3.949628     0.420169    -1.742054
H     3.256510    -0.181428    -2.068455
H    -0.733347     4.531705    -4.042570
O    -1.516827     5.073495    -4.250863
H    -1.367817     5.939702    -3.826393
H     0.670862     3.212951    -2.664852
O     0.678274     3.590893    -3.573131
H     0.726104     2.828114    -4.159379
H    -5.356712    -5.203697     1.772418
O    -4.658889    -5.796205     1.415876
H    -3.819069    -5.379535     1.687919
H     7.824993    -1.621029    -4.100227
O     7.566927    -1.336922    -3.186229
H     7.073307    -0.486356    -3.328038
H     3.650493    -5.105525    -5.373032
O     4.424986    -4.728172    -4.904087
H     4.769702    -5.419144    -4.293700
H    -3.769219     0.006825     4.921455
O    -4.371328     0.468745     5.554469
H    -5.030127    -0.191293     5.845084
H     3.493279    -5.919971    -0.528608
O     4.365480    -5.680085    -0.852213
H     4.467628    -4.721320    -0.693719
H     5.015639    -0.316955    -4.170819
O     4.487543    -1.034317    -4.560066
H     4.166127    -1.618210    -3.839256
H    -1.157783     1.578647    -3.946340
O    -1.808949     2.198561    -4.332005
H    -1.451516     2.532238    -5.177395
H     4.818706    -6.295545    -2.258259
O     5.122858    -6.587591    -3.151565
H     5.996251    -6.998031    -3.016859
H     9.615691    -5.685282    -2.216648
O     9.202317    -6.076327    -1.439818
H     8.609113    -6.763863    -1.794082
H     2.345226     4.726489     0.447341
O     1.765421     4.706820     1.217933
H     1.410142     3.785469     1.294956
H    -4.394964    -2.646305     4.213897
O    -5.289633    -2.308213     4.011730
H    -5.154100    -1.525945     3.437500
H    -5.823624    -3.205916     1.298735
O    -6.285897    -3.764584     1.966019
H    -6.098115    -3.330231     2.817313
H     1.693792     3.465272     6.856039
O     1.070058     3.980748     6.322943
H     0.286480     4.130935     6.894437
H     5.020654    -2.162566     3.602747
O     5.039395    -1.443970     4.267708
H     4.226456    -0.890372     4.111297
H     2.415218    -5.576193     4.820001
O     2.797207    -6.458909     4.560214
H     2.053950    -7.041516     4.382466
H     2.275668    -4.496605    -6.812774
O     2.108904    -4.986677    -5.998095
H     1.842910    -4.298629    -5.339530
H     6.834296    -4.241145    -0.876564
O     7.358489    -4.534429    -0.100460
H     8.106387    -5.020492    -0.506216
H    -1.720501     4.478832     7.694823
O    -0.822079     4.578494     8.080827
H    -0.643151     5.537943     8.106414
H    -5.111902     5.695004    -5.602012
O    -4.502584     4.932864    -5.623466
H    -3.745672     5.149777    -6.188856
H     3.313806    -2.504938    -8.447429
O     3.226891    -3.041888    -7.648830
H     4.099542    -3.017058    -7.215473
H    -0.660740     8.832326    -2.278180
O    -0.539358     9.660536    -1.758577
H     0.222808     9.486784    -1.181455
H     2.082854    -0.913290     5.198564
O     1.509628    -1.439470     5.785275
H     1.604595    -1.096401     6.683152
H     5.153292    -1.995085    -5.664852
O     5.518719    -2.748486    -6.197307
H     5.225558    -3.560946    -5.708121
H     5.721412    -5.207222     4.667711
O     5.198272    -5.123998     5.494508
H     4.478619    -5.757826     5.407278
H    -3.962545     1.131827     6.995250
O    -3.771795     1.607061     7.839748
H    -4.648783     1.990310     8.100854
H    -1.854150     9.615831    -0.744993
O    -2.714436     9.487004    -0.271027
H    -3.326902     10.114578    -0.658326
H    -5.940884     4.685401    -2.946053
O    -6.849081     4.565116    -3.291029
H    -6.756988     3.863562    -3.968745
H     0.124132    -7.059768    -1.164522
O     0.588402    -7.496080    -0.417562
H    -0.090027    -7.692556     0.231472
H    -7.628495     3.782215    -1.983044
O    -7.888967     3.193863    -1.243814
H    -7.743822     2.285830    -1.584262
H     3.988854    -0.891475     6.974089
O     3.995827     0.072806     6.967189
H     4.807487     0.364490     6.535622
H     2.262884     5.805823    -1.182814
O     3.199376     5.515460    -1.069607
H     3.376832     4.976072    -1.862924
H     6.587023    -5.898829     0.629794
O     6.223754    -6.632898     1.172896
H     5.317553    -6.363050     1.397474
H    -3.864650     4.714240     7.774068
O    -3.296909     4.253679     7.114497
H    -3.488032     3.309620     7.223734
H     5.797869    -7.924660     0.120719
O     5.526347    -8.601513    -0.535054
H     4.692519    -8.284671    -0.925295
H    -0.547803     2.033355     7.683833
O    -1.180944     1.969409     6.948645
H    -2.049033     1.824623     7.344858
H    -6.366382    -0.132143     1.047980
O    -6.686914    -0.214475     0.135012
H    -7.604898    -0.487771     0.153067
H    -5.349514    -3.070527    -0.605916
O    -5.099142    -2.368285     0.020565
H    -5.670795    -1.596502    -0.166281
H     4.321746     5.589679     0.316873
O     4.656106     5.690301     1.221872
H     3.960235     6.197577     1.675409
H    -9.024066    -1.756399    -2.270105
O    -8.476665    -1.554762    -1.483837
H    -8.602410    -2.292534    -0.847063
H    -5.514065     3.471263    -5.536538
O    -6.030095     2.758995    -5.123010
H    -5.362584     2.174349    -4.709554
H     3.200222    -0.873446    -5.664542
O     2.346608    -0.991322    -6.135007
H     2.429488    -1.841313    -6.605890
H     8.077925    -1.215991    -6.122495
O     8.156966    -2.089652    -5.675478
H     7.277289    -2.488585    -5.865251
H     7.632339     1.028461    -6.320324
O     7.446637     0.181609    -6.738237
H     6.464912     0.127662    -6.774118
H    -7.837610    -3.705606     0.910803
O    -8.516063    -3.599365     0.226314
H    -8.415958    -4.357921    -0.376167
H    -2.409376     8.734131     1.292086
O    -2.257587     8.144929     2.044369
H    -1.486236     7.593644     1.821116
H    -4.442039     6.425926     3.492328
O    -4.612916     6.852708     2.636310
H    -3.850659     7.440399     2.497766
H     3.410740     3.461063    -3.583660
O     3.255670     4.429926    -3.490277
H     2.290456     4.492774    -3.596787
H    -6.095989    -1.609307    -3.457899
O    -6.177799    -2.189797    -2.674807
H    -6.962498    -1.884953    -2.165800
H     6.479970     1.058956     4.730927
O     6.084921     1.597271     5.433770
H     6.271877     2.516243     5.143534
H     1.375092     1.736529    -5.832205
O     1.182044     1.139396    -5.078751
H     1.546879     0.277268    -5.348901
H    -2.482576     2.948381     10.475131
O    -2.268541     2.041479     10.201005
H    -2.865319     1.841486     9.467964
H     7.641489    -0.486767     3.073519
O     6.891906     0.090063     3.241688
H     6.200072    -0.511634     3.620447
H    -5.627047    -8.060786    -0.724778
O    -4.892427    -8.129074    -0.078168
H    -4.897579    -7.312405     0.444775
H    -5.160535    -0.118739    -4.728606
O    -5.775846    -0.831483    -4.969994
H    -6.615037    -0.391402    -5.167236
H     1.907626    -0.180591    -7.526972
O     1.705635     0.291458    -8.370489
H     2.281060    -0.113075    -9.024788
H     4.895040    -1.375112    -9.314438
O     3.971767    -1.143071    -9.597190
H     3.951249    -1.256204    -10.546808
H     7.582781    -2.560578     4.186772
O     7.731982    -2.590571     3.227545
H     7.241639    -3.381365     2.949556
H     6.752324    -5.873690     2.656898
O     6.807450    -5.209023     3.369705
H     7.684260    -5.293605     3.784794
H    -1.824117     8.943407     3.496460
O    -1.577296     9.247706     4.395163
H    -2.426487     9.377452     4.850716
H    -7.376484     1.563936    -5.262311
O    -7.949785     0.818185    -5.018657
H    -8.852361     1.215789    -4.942203
H     6.941566    -1.069288    -8.405434
O     6.361358    -1.795867    -8.657322
H     6.127626    -2.229101    -7.818336
H    -1.672071     6.251401    -7.026450
O    -2.067366     5.424338    -6.754572
H    -1.819547     5.293091    -5.790745
H     0.007237     3.303204     9.015833
O     0.206196     2.383667     9.270153
H    -0.591800     2.117055     9.775786
H     6.714071    -2.771330    -2.711404
O     6.291318    -3.614046    -2.423708
H     6.602362    -4.262317    -3.086776
H    -4.054871    -3.070869    -4.960319
O    -4.208827    -2.956886    -5.925086
H    -4.758368    -2.165291    -5.979877
H     1.989235     2.180180     8.456916
O     2.652856     2.295254     7.767080
H     3.077052     1.426054     7.650468
H    -6.881389    -5.209608    -1.415507
O    -7.796457    -5.480481    -1.661657
H    -7.930645    -5.077164    -2.544116
H    -3.823719     5.245614     5.691149
O    -3.792372     6.014977     5.101435
H    -2.858963     6.310920     5.196134
H    -7.869191     0.078957    -1.979576
O    -7.380989     0.804096    -2.392331
H    -7.609057     0.793559    -3.345577
H     5.850889     0.140393     0.401984
O     5.631353     0.864630     1.021095
H     6.139643     0.668305     1.835306
H    -6.208348     3.293820     7.387213
O    -6.079774     2.774960     8.215350
H    -6.678212     2.012329     8.125888
H     2.308685    -8.065900    -0.862875
O     2.985115    -8.047833    -1.559090
H     2.767340    -8.762561    -2.173347
H    -2.720192    -3.954761    -6.214201
O    -1.964009    -4.518364    -5.984250
H    -1.689537    -4.229091    -5.085682
H    -5.637165     3.747781     5.301177
O    -6.287300     4.142508     5.918497
H    -6.125092     5.086807     5.906576
H    -0.987313    -7.108013    -3.185099
O    -0.517778    -6.437009    -2.656120
H     0.391757    -6.367484    -3.032897
H     4.454798     2.022764     5.121188
O     3.513037     2.261993     5.001251
H     3.128333     2.274735     5.883014
H     4.114350     4.661331     6.296497
O     4.193809     5.392565     5.679496
H     3.626711     5.151829     4.908298
H     2.772044     3.622378     3.917236
O     2.592806     4.562324     3.751826
H     2.473209     4.661363     2.785548
H     9.414822     0.233952    -1.069966
O     8.597758     0.384010    -0.592140
H     8.428192    -0.434066    -0.093817
H    -2.098604     5.308175     10.645523
O    -2.819433     4.677972     10.876034
H    -3.038097     4.853552     11.791453
H     7.981901    -3.001937     0.310815
O     8.407140    -2.150418     0.562045
H     8.348476    -2.145386     1.524344
H     5.377864     3.675093     3.519973
O     6.034291     3.942505     4.185116
H     5.619282     4.657762     4.688923
H    -4.206029     5.006861     9.778865
O    -4.839482     5.157429     9.057077
H    -5.449538     4.407332     9.053460
H    -6.987695    -3.483373    -3.502742
O    -7.606928    -4.095647    -3.952329
H    -7.084761    -4.536037    -4.654727
H     0.028114     6.120217     10.767231
O    -0.836895     6.450807     10.520352
H    -0.721706     6.882219     9.654376
H     2.602848     1.510745    -4.113704
O     3.481876     1.862803    -3.876369
H     3.801081     1.348911    -3.104140
H    -6.958233    -0.236313     7.206593
O    -7.468679     0.540707     7.487756
H    -8.091875     0.723693     6.783559
H    -2.706768    -9.873640    -0.853654
O    -2.646404    -8.931752    -1.013144
H    -3.552886    -8.567645    -0.771717
H    -10.058188     3.067025    -4.907865
O    -10.173620     2.148960    -4.628439
H    -10.389588     2.231314    -3.678589
H    -2.046993    -3.029962     4.598646
O    -2.921612    -3.471104     4.667334
H    -2.913817    -4.088516     3.910725
H    -0.146133    -7.982186     2.463094
O     0.678800    -7.770200     2.912755
H     1.399165    -8.063144     2.326745
H     6.721998    -2.367283     6.381040
O     7.175284    -3.074391     5.917275
H     6.547904    -3.811264     5.874468
H    -5.254309    -2.017231     6.928839
O    -5.931646    -1.519939     6.445487
H    -5.914348    -1.895766     5.535818
H     0.847367     3.048142    -7.121500
O     1.765797     2.719270    -7.179048
H     1.752338     1.972645    -7.805622
H    -3.957854     8.745956     6.671173
O    -3.956053     8.744955     5.713798
H    -4.079215     7.817395     5.445066
H    -2.063779     10.318005    -2.736509
O    -2.965677     10.498214    -3.038441
H    -2.895001     11.133113    -3.750599
H     9.431768    -4.047288     4.027453
O     9.156511    -4.722558     4.655076
H     8.724490    -4.248739     5.376549
H    -0.709820    -5.987466    -5.859098
O    -0.006301    -6.554247    -5.526311
H     0.829007    -6.092524    -5.742275
H     1.824425     8.282702     0.663347
O     1.520775     8.605032    -0.213969
H     2.335475     8.645180    -0.744160
H     3.509775     2.948239    -6.669577
O     4.337415     2.656227    -6.261426
H     4.092409     2.384164    -5.351746
H     3.734841     7.138341    -1.232176
O     3.939222     8.074592    -1.444817
H     4.308245     8.020180    -2.338246
H     4.409970     0.016219    -7.922486
O     4.791020     0.160410    -7.054382
H     4.604964     1.091063    -6.806766
H     6.042070     1.948274    -0.483889
O     6.607207     2.144059    -1.245541
H     7.432356     1.666483    -1.051102
H     6.692498    -8.383637    -1.575638
O     7.322067    -8.056725    -2.278685
H     7.572841    -8.844805    -2.768273
H    -5.273772    -5.787575    -5.426568
O    -5.892120    -5.116488    -5.741043
H    -5.342430    -4.346875    -5.976503
H     0.682625     7.170669     7.598451
O    -0.218997     7.196521     7.957895
H    -0.774445     7.210724     7.140383
H    -8.875778    -2.841331    -4.118344
O    -9.397993    -2.034036    -3.950357
H    -9.112871    -1.367926    -4.579603
H    -2.382356    -5.985591    -2.162465
O    -3.260925    -5.700345    -2.431100
H    -3.447616    -6.075276    -3.316706
H    -2.958365    -5.895146    -5.428351
O    -3.557641    -6.506189    -4.957449
H    -3.074281    -7.325623    -4.790170
H    -1.380576     3.737581    -6.989707
O    -0.838335     2.982458    -6.720749
H    -1.075188     2.197571    -7.270865
H    -0.189043     0.431197    -8.226807
O    -1.085391     0.664551    -7.943303
H    -1.259927     0.139992    -7.145784
H    -10.414891     4.041372    -2.742461
O    -10.481029     3.261825    -2.175411
H    -9.651629     3.236176    -1.666501
H     4.588260     4.091604     1.714640
O     4.380705     3.170063     1.991311
H     5.097647     2.595181     1.710657
H     6.500970     1.416641    -4.226105
O     6.200883     0.789040    -3.534365
H     6.227444     1.283775    -2.689720
H     9.497938    -2.159666    -0.899392
O     9.835951    -1.921234    -1.781458
H     9.049453    -1.549908    -2.236080
H     9.969328    -3.180637    -3.064920
O     9.916416    -3.766324    -3.857155
H     9.771485    -3.155841    -4.592893
H    -7.666136    -8.582770    -1.688392
O    -6.929592    -7.986841    -1.816825
H    -7.308937    -7.074578    -1.805573
H     4.164442     6.098349    -3.824182
O     4.824492     6.800636    -3.739748
H     5.661390     6.348396    -3.601082
H     0.127718    -8.160561    -5.235708
O     0.151528    -9.143613    -5.106481
H     0.307270    -9.504895    -5.979106
H    -2.299918    -8.670071    -2.737816
O    -2.068120    -8.404939    -3.647510
H    -1.419600    -9.020977    -4.007046
H     2.219521    -10.805133    -3.518214
O     2.166644    -9.851073    -3.492668
H     1.378452    -9.583724    -4.015695
H     6.845591     3.351993    -4.580527
O     6.904955     2.675368    -5.283109
H     6.110787     2.809008    -5.822791
H    -3.542335    -3.733685     7.704544
O    -3.658917    -2.945627     7.175356
H    -3.406619    -3.182927     6.256817
H    -0.614229    -3.350638    -6.739499
O     0.014258    -2.617428    -6.747366
H    -0.469789    -1.843952    -6.404059
H     0.654212     0.457280     8.742399
O     0.663642    -0.256540     8.100819
H    -0.257734    -0.547824     8.012508
H    -5.832744     7.367091    -4.255029
O    -6.334195     6.747895    -4.817002
H    -6.619844     6.015646    -4.226723
H    -4.280824     9.104300    -3.264483
O    -4.814835     8.306869    -3.159477
H    -4.405779     7.827300    -2.420936
H    -9.706908     5.789193    -4.652152
O    -10.238624     4.983226    -4.489708
H    -11.119704     5.182764    -4.808041
H     2.770236     6.518746     6.136991
O     1.809931     6.613493     6.234646
H     1.468159     5.699486     6.131560
H     4.802150     8.561543     0.083444
O     5.120086     8.562310     1.004142
H     5.527560     7.698192     1.134667
H     4.053144    -7.504784    -4.242812
O     3.342539    -7.746495    -4.870404
H     2.986594    -8.556490    -4.475983
H     0.374750     8.660566     4.233328
O     1.054081     8.017918     4.004438
H     1.281344     7.524276     4.818468
H     5.243125     4.210722    -3.163402
O     6.204693     4.179920    -3.112218
H     6.413979     3.599881    -2.363340
H    -2.560448    -1.553679     7.559578
O    -2.052165    -0.759448     7.780755
H    -2.679528    -0.135179     8.155590
H    -9.027680     7.929714    -4.149661
O    -8.963078     7.346410    -4.907315
H    -8.005632     7.184333    -5.042310
H     3.563057    -8.968698     1.066499
O     2.885650    -8.339793     1.320246
H     3.359457    -7.532858     1.598454
H     3.583122     8.182322     1.828482
O     2.793729     7.617136     1.939429
H     2.346805     7.850543     2.765880
N     7.628192    -5.178061    -4.229638
H     7.460803    -5.172659    -5.175721
H     8.480280    -4.691867    -4.108589
