21

H     3.455128    -6.066571     3.158371
O     3.806750    -5.864223     2.252621
H     3.053607    -5.521772     1.722415
H     6.666226    -5.794046     0.721368
O     6.302714    -6.582509     1.198077
H     5.392507    -6.311326     1.425403
H     5.924082    -7.792372     0.037932
O     5.691378    -8.562110    -0.540506
H     4.829314    -8.319332    -0.940919
H     2.439963    -8.110572    -0.832125
O     3.064606    -8.085431    -1.579144
H     2.754129    -8.761420    -2.206048
H     6.922773    -8.468333    -1.763035
O     7.507313    -8.155518    -2.492441
H     7.683286    -8.900863    -3.067490
H     3.310442    -9.072782     1.505633
O     2.740357    -8.298318     1.322014
H     3.263191    -7.539359     1.635889
N     4.688613    -10.262332     1.395445
H     5.156559    -9.759032     0.689550
H     5.296823    -10.269682     2.140083
