12

H    -10.029945     2.899513    -5.007891
O    -10.290117     2.031238    -4.657592
H    -10.277363     2.214626    -3.693572
H    -10.096677     4.098406    -2.842426
O    -10.375118     3.392592    -2.227802
H    -9.610059     3.292072    -1.625569
H    -9.683863     5.766315    -4.780983
O    -10.044550     4.872865    -4.606626
H    -11.012359     4.955196    -4.630772
N    -12.712990     3.896209    -4.120376
H    -12.360564     3.081219    -4.506676
H    -12.470081     3.799851    -3.189869
