30
Coordinates from ORCA-job grain_mol_opt.QMRegion
  H   -2.39475763490993     -3.59145852772136      1.92796496213805
  O   -2.42187723077979     -4.53427223759188      2.17968454027673
  H   -1.49332787336097     -4.76183997755807      2.39473576626433
  H   -2.16657464477808     -8.10401351281794      0.40722616710821
  O   -1.81674602353525     -7.65969600116782      1.21206000188537
  H   -2.59012487291659     -7.35269679253580      1.69121586172143
  H   -5.38343687687875     -5.02392337621255      1.76572390278568
  O   -4.71760797617011     -5.72764622453156      1.52090454288128
  H   -3.85247746168090     -5.25690078795091      1.58499490471348
  H   -4.45691189438176     -2.51530599790206      4.15550901617485
  O   -5.36921862212469     -2.19767718363005      3.97645246817241
  H   -5.23538816251705     -1.40351525487689      3.41022397792026
  H   -5.87906343525068     -3.12759055172579      1.23652651557412
  O   -6.34697312331565     -3.69130919520646      1.90673897651954
  H   -6.15110729880435     -3.21880299622801      2.74247713783084
  H   -5.71775463943121     -8.07940270135381     -0.75984724678662
  O   -5.04512322100013     -8.15757208398401     -0.04422969832725
  H   -5.01506639434754     -7.28503599849864      0.38225824701036
  H   -2.10960892654838     -3.08408847629134      4.58813004569585
  O   -3.00662431660216     -3.35016582629691      4.89107335255660
  H   -3.16328732050284     -4.24642163051770      4.53930825597619
  H   -5.34832655899500     -1.93257849091464      6.98242554601366
  O   -6.02285104288474     -1.44681449097995      6.48214947031435
  H   -5.96964475202365     -1.79692934431403      5.56859344881306
  H   -3.41675148565436     -3.51152002164247      7.99456648184534
  O   -3.71899081337459     -2.84857753948127      7.37037607167740
  H   -3.36901671943544     -3.11814774993767      6.48080159864751
  O   -4.18761467999289     -5.93710644764880      4.37772201616222
  H   -5.02627267640546     -5.90371007015895      4.84727506219733
  H   -4.43576509391785     -5.99642868774584      3.43653922782716
