12

H     3.729786     7.038647    -1.256123
O     3.958852     7.975779    -1.460517
H     4.308261     7.899524    -2.364158
H     4.952808     8.362504    -0.011471
O     5.270078     8.380807     0.919845
H     5.489495     7.451315     1.096624
H     3.566959     8.232683     1.874391
O     2.798224     7.643893     1.963235
H     2.304846     7.878760     2.768689
N     7.313828     10.375197     1.231262
H     8.146762     9.907380     1.126012
H     6.643364     9.673536     1.151205
