603

H     0.218266     3.036196    -0.699961
O     0.745067     2.378082    -1.203404
H     1.680480     2.495216    -0.913340
H    -0.068423    -1.299082     3.141169
O     0.324308    -0.600198     2.595485
H    -0.152241     0.214208     2.828338
H    -2.383861     2.416115    -0.551849
O    -2.169913     1.945244     0.271535
H    -2.191664     0.997402     0.047513
H    -4.652184     0.558739     2.162821
O    -4.969765    -0.374519     2.177069
H    -4.465221    -0.853397     1.511410
H     0.074912    -0.304584     0.940887
O    -0.116325    -0.067009     0.012533
H     0.220647     0.830533    -0.102607
H    -0.150266    -3.568815     3.771756
O    -0.428558    -2.737366     4.189897
H     0.216051    -2.566753     4.893099
H    -4.872031     2.541609     1.307893
O    -4.233974     2.131469     1.924037
H    -3.390379     2.113085     1.413045
H    -3.230515     3.905074    -2.228999
O    -2.500044     3.300783    -1.992008
H    -2.145310     3.008477    -2.851084
H    -0.116817    -3.800780     0.497320
O     0.223533    -2.982361     0.913172
H    -0.563750    -2.495444     1.224752
H    -2.369692    -1.529404     2.457014
O    -2.179270    -1.996352     1.616744
H    -2.437264    -1.410208     0.886373
H     2.085908    -1.444327    -1.127360
O     2.316217    -1.695682    -0.209489
H     1.526241    -2.122099     0.174376
H    -1.379675     1.832418     1.896640
O    -1.470953     1.435323     2.772972
H    -1.458026     2.148412     3.437322
H     0.220678    -2.702455    -1.577214
O    -0.532445    -2.087974    -1.635428
H    -0.354091    -1.363222    -0.999764
H    -3.426626    -2.919077    -0.404202
O    -2.708365    -3.411717    -0.822870
H    -1.997916    -2.781600    -1.040639
H     2.781032     0.133074     2.926632
O     2.878805    -0.048949     3.888350
H     2.970452     0.844150     4.292765
H    -3.509528     6.387469    -0.565612
O    -3.268142     7.048734    -1.265173
H    -3.127845     7.895235    -0.796776
H     3.914292     0.584167     1.180368
O     2.963065     0.404219     1.293694
H     2.726165    -0.349581     0.716169
H    -5.765042     0.850924    -1.625576
O    -4.854251     1.176568    -1.497337
H    -4.965220     2.006852    -0.988390
H    -1.195845     5.405408     2.189977
O    -1.819772     4.657332     2.072923
H    -1.900888     4.241226     2.936349
H     3.508838     2.764426     0.415531
O     3.261348     2.718231    -0.523915
H     3.595101     1.874708    -0.870861
H     1.502735    -4.698356    -2.253739
O     1.566921    -3.919665    -1.682441
H     2.363078    -3.460541    -2.032265
H    -0.903675    -0.086061    -2.559280
O    -0.268108     0.565977    -2.882360
H    -0.009482     1.150530    -2.145742
H     1.707060    -4.684491    -0.182206
O     1.812620    -5.320769     0.561047
H     1.348549    -6.131843     0.265616
H    -1.213801    -3.265294    -2.888976
O    -1.037708    -3.948869    -3.548716
H    -0.914345    -4.795835    -3.078812
H    -2.770958     3.321391     4.684874
O    -1.789626     3.316845     4.652217
H    -1.498754     2.916316     5.489743
H     0.974336     5.042047     4.060143
O     0.028459     5.274987     4.110311
H    -0.444820     4.472781     4.368750
H    -1.722054    -4.645862    -0.379641
O    -0.957733    -5.186952    -0.093088
H    -1.306851    -5.872711     0.485611
H    -3.897147     5.834787    -2.619730
O    -4.253588     5.002367    -2.948311
H    -4.085918     4.966968    -3.913877
H    -2.424660    -3.680634     1.925745
O    -2.444494    -4.584569     2.302033
H    -1.505311    -4.823401     2.444901
H    -4.681513    -2.973795    -2.914097
O    -3.828192    -3.207901    -3.317948
H    -3.499884    -4.001986    -2.851590
H     0.347031     1.386219     4.601801
O     0.854547     2.145024     4.267321
H     0.902852     2.804916     4.973483
H    -4.645639    -5.163546    -1.582997
O    -5.347724    -4.808366    -1.010767
H    -5.136568    -5.161926    -0.125790
H     2.338413    -6.486626    -4.039309
O     2.000735    -6.155572    -3.186894
H     2.432827    -6.729513    -2.522117
H     0.482465    -3.381585    -4.011418
O     1.285273    -3.014302    -4.434510
H     0.965788    -2.646380    -5.284669
H     1.970545    -1.748177     2.975912
O     2.125210    -2.679290     2.759120
H     1.439615    -2.893023     2.091960
H    -2.998964    -1.805411    -3.223644
O    -2.575269    -0.919286    -3.160758
H    -3.231548    -0.273561    -3.479923
H    -3.173976     4.983640     1.058947
O    -3.955243     5.356024     0.603210
H    -4.370652     5.916429     1.307145
H     0.886235     2.259653     2.575931
O     0.989544     2.252164     1.604753
H     1.717405     1.628814     1.445093
H     0.211637     5.660856    -0.773824
O     0.740847     6.314244    -1.285312
H     0.879898     7.119688    -0.735849
H     0.359524     7.042893     2.571202
O    -0.001741     6.660534     1.754312
H     0.662864     5.990261     1.494539
H    -2.471953     0.225697     3.325761
O    -2.694853    -0.588001     3.830759
H    -1.935624    -0.627024     4.454120
H    -0.889432     0.566058     6.011571
O    -0.614667     0.045263     5.238192
H     0.097429    -0.558731     5.527081
H     0.714408    -4.989519     1.975926
O     0.170779    -5.097203     2.779647
H     0.313800    -6.017640     3.053312
H    -2.115935    -8.081900     0.443365
O    -1.793836    -7.593066     1.228151
H    -2.580328    -7.280697     1.683118
H    -0.354841     6.874910    -2.253791
O    -1.111877     7.276589    -2.755004
H    -1.885981     7.161413    -2.155689
H    -1.095461     4.315883     0.555250
O    -0.723620     4.372657    -0.341735
H    -1.433984     4.132877    -0.971053
H    -4.398929     2.760359     3.485808
O    -4.398132     2.931650     4.450189
H    -4.483431     2.049264     4.860224
H     2.026723    -3.576121     4.240129
O     1.961355    -4.047543     5.093592
H     2.467693    -3.510588     5.724619
H     4.695816    -3.196208     0.838343
O     4.537024    -3.120947    -0.128623
H     3.678570    -2.643322    -0.213509
H    -2.709604    -0.743532    -1.366855
O    -3.036805    -0.471473    -0.493180
H    -3.837126     0.054648    -0.701317
H    -1.601458    -0.763747    -4.643892
O    -1.091711    -0.548978    -5.446647
H    -0.382616     0.047294    -5.161115
H     1.810083    -1.719319    -3.383676
O     1.904235    -0.969245    -2.764489
H     1.124442    -0.395359    -2.892586
H     3.668591    -3.120286     2.548162
O     4.627417    -3.350447     2.475936
H     4.681017    -4.310402     2.604761
H     3.427425    -6.118607     3.124149
O     3.784580    -5.919171     2.224106
H     3.048157    -5.573394     1.679961
H    -3.326292     1.612604    -4.193621
O    -4.171717     1.140970    -4.004230
H    -4.390748     1.289821    -3.048443
H    -5.065503     4.156455     0.042463
O    -5.504978     3.290592    -0.059592
H    -6.434644     3.410957    -0.343629
H     6.747607    -1.188745    -1.362400
O     5.973011    -1.037065    -0.814466
H     5.553778    -1.904321    -0.614866
H     4.606131    -3.173936    -2.471873
O     3.739593    -3.001327    -2.890280
H     3.743084    -3.622588    -3.644476
H     4.436985    -2.289073     5.619262
O     4.092278    -2.753342     6.412290
H     4.426437    -3.658815     6.332353
H    -0.741395     6.348820     5.054709
O    -1.338035     6.925752     5.591454
H    -1.350408     7.802330     5.148634
H     4.713381    -0.138951    -1.472077
O     3.947279     0.403526    -1.739103
H     3.254725    -0.198332    -2.066272
H    -0.974669     4.460792    -3.863936
O    -1.632069     5.096837    -4.196378
H    -1.423540     5.941753    -3.742644
H     0.717096     3.235296    -2.582143
O     0.692798     3.634453    -3.489289
H     0.678870     2.842557    -4.041565
H    -5.379839    -5.181568     1.781370
O    -4.683321    -5.777556     1.427756
H    -3.842762    -5.362369     1.699233
H     7.897558    -1.701908    -4.032394
O     7.638306    -1.386756    -3.133835
H     7.152889    -0.542804    -3.291966
H     3.715006    -5.080602    -5.290282
O     4.477108    -4.706886    -4.808887
H     4.860370    -5.417654    -4.261692
H    -3.779032     0.031982     4.917864
O    -4.379735     0.497603     5.549120
H    -5.041292    -0.159123     5.841009
H     3.470690    -5.944403    -0.518673
O     4.343639    -5.698225    -0.836693
H     4.421135    -4.736031    -0.693228
H     5.019376    -0.345312    -4.163189
O     4.480731    -1.053498    -4.554343
H     4.154857    -1.638271    -3.837050
H    -1.183590     1.459892    -3.888745
O    -1.788889     2.127224    -4.275425
H    -1.484653     2.344237    -5.178626
H     4.892874    -6.327989    -2.312629
O     5.226783    -6.653695    -3.177572
H     6.043575    -7.136063    -2.989120
H     8.750446    -5.103725    -2.911673
O     8.057453    -5.519569    -2.354079
H     8.091274    -6.477159    -2.454376
H     2.356831     4.720894     0.439092
O     1.774955     4.703891     1.208000
H     1.416449     3.784317     1.286174
H    -4.412220    -2.620365     4.217171
O    -5.305512    -2.280292     4.012919
H    -5.167061    -1.499841     3.436827
H    -5.839557    -3.183532     1.301912
O    -6.303569    -3.739411     1.970289
H    -6.116120    -3.302958     2.820575
H     1.693199     3.478640     6.848981
O     1.071584     3.993737     6.313206
H     0.288199     4.149277     6.883725
H     5.005654    -2.167555     3.613972
O     5.026171    -1.448318     4.276953
H     4.215029    -0.891442     4.118851
H     2.389575    -5.570295     4.837146
O     2.768822    -6.454869     4.578423
H     2.023257    -7.035816     4.404694
H     2.272439    -4.524285    -6.793652
O     2.102370    -5.011064    -5.977334
H     1.837595    -4.319170    -5.322984
H     6.447366    -4.109088    -0.500974
O     7.199852    -4.511863    -0.036427
H     7.707539    -4.936471    -0.755845
H    -1.718036     4.505394     7.681573
O    -0.819382     4.602973     8.067665
H    -0.637600     5.562059     8.091224
H    -5.081517     5.698798    -5.625224
O    -4.471208     4.936084    -5.648699
H    -3.716329     5.157498    -6.206120
H     3.301917    -2.538818    -8.441646
O     3.211241    -3.067988    -7.638377
H     4.087861    -3.046980    -7.209323
H    -0.634033     8.831392    -2.305298
O    -0.513037     9.657712    -1.781422
H     0.250607     9.483425    -1.207304
H     2.070329    -0.904862     5.204391
O     1.496249    -1.429732     5.791343
H     1.588715    -1.083279     6.688306
H     5.222600    -2.035376    -5.695031
O     5.568159    -2.802438    -6.215772
H     5.293177    -3.591728    -5.697514
H     5.694632    -5.212870     4.688705
O     5.171418    -5.126015     5.514537
H     4.449424    -5.757485     5.429233
H    -3.970437     1.163542     6.988797
O    -3.778792     1.640145     7.832198
H    -4.654795     2.027342     8.091321
H    -1.827107     9.618733    -0.773764
O    -2.688086     9.494680    -0.298285
H    -3.297648     10.122471    -0.690017
H    -5.927519     4.697392    -2.964917
O    -6.836793     4.576431    -3.308302
H    -6.745691     3.874662    -3.985329
H     0.099233    -7.062920    -1.145356
O     0.562245    -7.498067    -0.396519
H    -0.117919    -7.691661     0.251711
H    -7.618210     3.801736    -2.000072
O    -7.881473     3.215682    -1.259554
H    -7.739177     2.306688    -1.598136
H     3.974930    -0.885052     6.981573
O     3.984492     0.079061     6.970613
H     4.797965     0.367497     6.540282
H     2.240606     5.813509    -1.179143
O     3.168147     5.510514    -1.029937
H     3.363936     4.898920    -1.763613
H     6.554306    -5.933910     0.677006
O     6.184015    -6.669208     1.210822
H     5.279663    -6.390682     1.436641
H    -3.861404     4.747884     7.757897
O    -3.294264     4.283309     7.100529
H    -3.489391     3.340373     7.211891
H     5.764580    -7.949656     0.144434
O     5.476953    -8.637083    -0.492860
H     4.648402    -8.311392    -0.888207
H    -0.553724     2.056466     7.678401
O    -1.185980     1.991028     6.942532
H    -2.055217     1.851495     7.338232
H    -6.373233    -0.108249     1.042884
O    -6.691437    -0.194381     0.129592
H    -7.611039    -0.462297     0.146251
H    -5.363561    -3.054566    -0.602698
O    -5.110322    -2.351832     0.022041
H    -5.679969    -1.578688    -0.166361
H     4.336606     5.577170     0.309218
O     4.668795     5.676925     1.215055
H     3.974696     6.190086     1.664987
H    -9.031579    -1.733227    -2.274300
O    -8.484002    -1.531821    -1.488024
H    -8.613520    -2.267129    -0.849335
H    -5.499262     3.475058    -5.553078
O    -6.017813     2.766348    -5.137935
H    -5.353837     2.180131    -4.721342
H     3.198954    -0.898977    -5.659740
O     2.343610    -1.015244    -6.127938
H     2.426469    -1.865511    -6.600055
H     8.132757    -1.365214    -6.028511
O     8.138608    -2.228223    -5.570442
H     7.282626    -2.627917    -5.821855
H     7.642562     0.976206    -6.312560
O     7.452854     0.127654    -6.724858
H     6.471875     0.077674    -6.761780
H    -7.854812    -3.678314     0.913641
O    -8.532040    -3.571495     0.228123
H    -8.434186    -4.331955    -0.372262
H    -2.387846     8.745753     1.265693
O    -2.238251     8.158145     2.020035
H    -1.468593     7.604197     1.798357
H    -4.428770     6.450234     3.471115
O    -4.597747     6.874682     2.613683
H    -3.833865     7.459934     2.473422
H     3.450532     3.365449    -3.537138
O     3.374148     4.352606    -3.475688
H     2.411532     4.448468    -3.540844
H    -6.102081    -1.598947    -3.459453
O    -6.186098    -2.177235    -2.674814
H    -6.970518    -1.868621    -2.167490
H     6.474639     1.052051     4.734840
O     6.080130     1.592027     5.436512
H     6.269364     2.510232     5.144756
H     1.359179     1.561360    -5.846509
O     1.188995     0.990771    -5.065175
H     1.570086     0.129496    -5.348019
H    -2.487754     2.984834     10.465353
O    -2.276226     2.076625     10.193464
H    -2.873365     1.876719     9.460698
H     7.634432    -0.499495     3.082618
O     6.884555     0.077210     3.248536
H     6.191325    -0.521552     3.628836
H    -5.656760    -8.044665    -0.708372
O    -4.922425    -8.113131    -0.061271
H    -4.926207    -7.295316     0.459880
H    -5.161073    -0.115326    -4.732681
O    -5.778153    -0.827035    -4.972993
H    -6.615551    -0.384500    -5.172503
H     1.914410    -0.204155    -7.523309
O     1.721388     0.276261    -8.364067
H     2.286328    -0.139377    -9.020784
H     4.893541    -1.408476    -9.307772
O     3.969172    -1.177632    -9.590904
H     3.949439    -1.297748    -10.539718
H     7.566846    -2.570674     4.201625
O     7.714616    -2.608320     3.242317
H     7.220872    -3.399251     2.971355
H     6.721732    -5.896264     2.690352
O     6.783232    -5.219721     3.390130
H     7.658355    -5.305233     3.809623
H    -1.803236     8.959061     3.470189
O    -1.556266     9.263762     4.368839
H    -2.405492     9.399039     4.822600
H    -7.370035     1.574061    -5.274194
O    -7.945685     0.830990    -5.028217
H    -8.847258     1.231743    -4.954206
H     6.947773    -1.100719    -8.405465
O     6.363549    -1.820104    -8.668475
H     6.135155    -2.269670    -7.836541
H    -1.319686     5.878705    -7.130823
O    -1.982931     5.287937    -6.763612
H    -1.767267     5.264550    -5.782448
H     0.004473     3.327816     9.007297
O     0.200110     2.408129     9.263872
H    -0.599164     2.145766     9.769826
H     6.767705    -2.788795    -2.703644
O     6.235361    -3.531767    -2.363113
H     6.703813    -4.343612    -2.606596
H    -4.064140    -3.070909    -4.955440
O    -4.215947    -2.959383    -5.920689
H    -4.763217    -2.166409    -5.978975
H     1.983173     2.197646     8.453466
O     2.647970     2.307877     7.763926
H     3.069194     1.436912     7.650723
H    -6.901289    -5.190995    -1.407981
O    -7.816674    -5.460141    -1.654349
H    -7.948931    -5.058542    -2.537959
H    -3.816757     5.273221     5.674063
O    -3.782396     6.040433     5.081848
H    -2.848394     6.334414     5.176734
H    -7.871420     0.098963    -1.988077
O    -7.379320     0.820723    -2.401943
H    -7.607063     0.809651    -3.355347
H     5.848597     0.126569     0.408084
O     5.626631     0.849653     1.027044
H     6.135349     0.655416     1.841299
H    -6.209214     3.333956     7.372777
O    -6.082918     2.816537     8.202212
H    -6.684260     2.056034     8.114300
H     2.280875    -8.074098    -0.838950
O     2.958217    -8.062877    -1.534897
H     2.733426    -8.777994    -2.146876
H    -2.730634    -3.963112    -6.206152
O    -1.976937    -4.528892    -5.973119
H    -1.702443    -4.237251    -5.075506
H    -5.634726     3.780744     5.285699
O    -6.283824     4.178654     5.901932
H    -6.119808     5.122600     5.886785
H    -1.012178    -7.113937    -3.164830
O    -0.539443    -6.443465    -2.637623
H     0.368609    -6.376277    -3.017388
H     4.451569     2.022367     5.121134
O     3.510353     2.262301     4.999030
H     3.124875     2.281060     5.880394
H     4.117931     4.665436     6.289082
O     4.201693     5.393942     5.669470
H     3.633961     5.153710     4.898614
H     2.775313     3.623637     3.910358
O     2.599667     4.563758     3.742767
H     2.480905     4.661533     2.776264
H     9.406958     0.201847    -1.069927
O     8.599075     0.365696    -0.579793
H     8.422642    -0.451424    -0.084007
H    -2.096812     5.343665     10.629620
O    -2.819669     4.716121     10.861097
H    -3.039341     4.895477     11.775545
H     7.980207    -3.015103     0.331166
O     8.401540    -2.168198     0.585245
H     8.335055    -2.161954     1.547547
H     5.381310     3.667973     3.516040
O     6.037519     3.933094     4.182119
H     5.625408     4.652264     4.682894
H    -4.204154     5.047042     9.761587
O    -4.836052     5.197522     9.038438
H    -5.448965     4.449772     9.036493
H    -6.999799    -3.470112    -3.500016
O    -7.620307    -4.082258    -3.947994
H    -7.099165    -4.525829    -4.649076
H     0.032598     6.149918     10.751106
O    -0.831434     6.481644     10.502374
H    -0.714317     6.910872     9.635571
H     2.668342     1.397500    -4.081986
O     3.541454     1.768071    -3.849321
H     3.851510     1.266855    -3.058127
H    -6.971090    -0.194223     7.200441
O    -7.478925     0.585380     7.478971
H    -8.101021     0.768626     6.773866
H    -2.742910    -9.866971    -0.829435
O    -2.678385    -8.925662    -0.990750
H    -3.584215    -8.557741    -0.751623
H    -10.047221     3.086078    -4.926816
O    -10.165668     2.169191    -4.644588
H    -10.382577     2.255505    -3.695267
H    -2.066066    -3.010228     4.605199
O    -2.941434    -3.449350     4.674522
H    -2.935428    -4.068356     3.919298
H    -0.180233    -7.974479     2.486644
O     0.645978    -7.764046     2.934855
H     1.364512    -8.062108     2.349472
H     6.706451    -2.370329     6.393654
O     7.155214    -3.081333     5.931336
H     6.524400    -3.815491     5.893900
H    -5.272328    -1.981356     6.929584
O    -5.947379    -1.483229     6.443980
H    -5.930743    -1.861744     5.535486
H     0.753169     2.892842    -7.165843
O     1.712729     2.663325    -7.225657
H     1.742718     1.900421    -7.839312
H    -3.941521     8.776619     6.644051
O    -3.937863     8.773121     5.686707
H    -4.064371     7.845544     5.419892
H    -2.033106     10.315028    -2.771148
O    -2.935979     10.502633    -3.065178
H    -2.864007     11.126334    -3.787322
H     9.411773    -4.063074     4.051434
O     9.129958    -4.739975     4.674397
H     8.700545    -4.266007     5.397549
H    -0.724225    -6.000721    -5.843525
O    -0.021972    -6.567502    -5.507890
H     0.814491    -6.108022    -5.725542
H     1.846825     8.277991     0.642783
O     1.543840     8.596300    -0.235833
H     2.358517     8.636322    -0.766081
H     3.538091     2.889567    -6.661719
O     4.370506     2.608000    -6.262467
H     4.126864     2.271304    -5.372958
H     3.755563     7.124455    -1.244566
O     3.960737     8.059211    -1.460065
H     4.338695     8.001586    -2.349700
H     4.416318    -0.022044    -7.917666
O     4.791935     0.125827    -7.047757
H     4.612695     1.057774    -6.805464
H     6.045255     1.928649    -0.481413
O     6.610547     2.119059    -1.244010
H     7.434935     1.639804    -1.048134
H     6.686736    -8.438161    -1.597149
O     7.323551    -8.229246    -2.333500
H     7.690368    -9.064237    -2.619089
H    -5.291048    -5.785325    -5.416015
O    -5.906852    -5.112911    -5.732461
H    -5.354576    -4.345837    -5.970062
H     0.693181     7.189463     7.580266
O    -0.208739     7.218198     7.938655
H    -0.763257     7.232728     7.120443
H    -8.885249    -2.823639    -4.119645
O    -9.404643    -2.014210    -3.953627
H    -9.117441    -1.350547    -4.584525
H    -2.404062    -5.984320    -2.147788
O    -3.280969    -5.696267    -2.418501
H    -3.468062    -6.072802    -3.303482
H    -2.976244    -5.900028    -5.415233
O    -3.577256    -6.507921    -4.942262
H    -3.096943    -7.328795    -4.773911
H    -1.392712     3.688550    -6.984876
O    -0.904330     2.866508    -6.726639
H    -1.152625     2.120269    -7.324049
H    -0.184829     0.407100    -8.228705
O    -1.083824     0.635770    -7.950750
H    -1.257961     0.118352    -7.149022
H    -10.403366     4.067462    -2.764321
O    -10.472259     3.289629    -2.195147
H    -9.643548     3.263487    -1.685173
H     4.593695     4.082383     1.709307
O     4.382978     3.160983     1.985422
H     5.100630     2.584993     1.709158
H     6.504062     1.388447    -4.224369
O     6.196012     0.766598    -3.530929
H     6.229616     1.261747    -2.686763
H     9.642557    -2.235742    -0.925223
O     9.920268    -2.023067    -1.825094
H     9.120992    -1.683740    -2.269714
H     9.980179    -3.334332    -3.092414
O     9.712712    -3.986913    -3.766640
H     9.320999    -3.479901    -4.488337
H    -7.696167    -8.562654    -1.673010
O    -6.957462    -7.969340    -1.801184
H    -7.334182    -7.055876    -1.793252
H     4.390977     6.260293    -3.950102
O     5.083163     6.897840    -3.728798
H     5.802574     6.329714    -3.423793
H     0.104601    -8.174162    -5.213705
O     0.127287    -9.156750    -5.080131
H     0.277996    -9.522350    -5.951888
H    -2.329664    -8.670106    -2.716107
O    -2.093843    -8.407642    -3.625576
H    -1.448221    -9.028025    -3.982789
H     2.185480    -10.819943    -3.487009
O     2.140596    -9.865282    -3.464684
H     1.355877    -9.594627    -3.991969
H     6.856458     3.319520    -4.582271
O     6.912449     2.640595    -5.283143
H     6.121303     2.776420    -5.824871
H    -3.567159    -3.701158     7.711841
O    -3.679699    -2.914072     7.180358
H    -3.427778    -3.154875     6.262746
H    -0.622036    -3.367298    -6.731271
O     0.008552    -2.636006    -6.738490
H    -0.474609    -1.860364    -6.399396
H     0.643115     0.478758     8.741668
O     0.650360    -0.237209     8.102368
H    -0.272247    -0.524833     8.014302
H    -5.806275     7.374346    -4.283912
O    -6.309293     6.753552    -4.843370
H    -6.599106     6.026557    -4.249374
H    -4.253091     9.106720    -3.297124
O    -4.793599     8.314678    -3.183051
H    -4.381051     7.834766    -2.447084
H    -9.687430     5.807642    -4.677018
O    -10.222283     5.003846    -4.513198
H    -11.101965     5.205844    -4.833808
H     2.780550     6.527038     6.122540
O     1.820517     6.624472     6.219381
H     1.475894     5.711491     6.117846
H     4.824462     8.547255     0.065652
O     5.141123     8.548423     0.987022
H     5.547583     7.684171     1.119128
H     4.149889    -7.433326    -4.337314
O     3.391833    -7.717511    -4.879982
H     3.110203    -8.557820    -4.503343
H     0.393632     8.671307     4.209734
O     1.070749     8.025227     3.983826
H     1.295514     7.533838     4.799741
H     5.256882     4.186037    -3.170016
O     6.218363     4.151308    -3.115806
H     6.424337     3.572589    -2.365153
H    -2.577686    -1.524569     7.561973
O    -2.066486    -0.731627     7.780983
H    -2.691729    -0.103977     8.153815
H    -9.000554     7.948559    -4.181715
O    -8.938042     7.360568    -4.935911
H    -7.980953     7.196212    -5.071101
H     3.528874    -8.978242     1.097953
O     2.852685    -8.344841     1.343902
H     3.327929    -7.539934     1.623961
H     3.603338     8.175621     1.809985
O     2.813346     7.611542     1.923433
H     2.365314     7.850699     2.747592
N     1.049564     5.738470    -6.147556
H     1.624110     5.109765    -6.597036
H     0.742674     5.257803    -5.369941
