18
Coordinates from ORCA-job grain_mol_opt.QMRegion
  H   -2.12014208206330     -7.99743933472803      0.52464731675115
  O   -1.72399570660229     -7.53460897033888      1.29368630078417
  H   -2.45271634390084     -7.19531443704049      1.81686723773945
  H   -5.91033849281874     -7.97760893813916     -0.44421813016231
  O   -5.04117093971054     -8.03297628339510      0.02524243877544
  H   -5.00431448921568     -7.26240311473187      0.62136137214446
  H   -2.88426646422951     -9.64683616283692     -0.65700321165299
  O   -2.64769165643002     -8.77931512925837     -1.03375382198076
  H   -3.50926051506687     -8.31412168154100     -0.96421404918896
  H   -8.11071026281813     -8.36655365228851     -0.79470609943614
  O   -7.38466008923225     -8.03104803543939     -1.32817826763551
  H   -7.63303412332298     -7.08322553966785     -1.49005953668386
  H   -2.20561744617462     -8.76002388189088     -2.80752950990059
  O   -1.99698655074983     -8.42491518294954     -3.69984310994731
  H   -1.31403519401281     -8.98054341876250     -4.10261604414388
  O   -3.98624397342038    -10.57886833416347      0.58625834060820
  H   -4.54209477635994    -11.31816757777648      0.32563634636964
  H   -4.57765101666017     -9.80025206665051      0.57681108003729
