36

H    -0.895450     6.249680     4.964928
O    -1.511959     6.843475     5.469797
H    -1.435006     7.707078     5.000377
H    -1.784941     4.322349     7.605684
O    -0.932352     4.487522     8.072488
H    -0.716625     5.434191     7.981801
H    -3.920909     4.537190     7.575658
O    -3.335762     4.026214     6.980086
H    -3.544473     3.103312     7.223029
H    -1.808385     8.959687     3.411765
O    -1.455008     9.300560     4.262813
H    -2.249941     9.423187     4.822959
H    -3.979349     5.029537     5.272206
O    -4.066374     5.975725     5.096183
H    -3.145376     6.303723     5.222989
H    -5.779505     3.608244     5.309310
O    -6.484342     3.991817     5.873082
H    -6.245670     4.922900     5.936063
H    -2.193301     5.252731     10.597996
O    -2.896118     4.608205     10.828325
H    -3.027056     4.688083     11.775965
H    -4.343282     4.885092     9.727093
O    -4.941961     5.080784     8.979433
H    -5.556625     4.329440     8.933419
H    -0.921164     7.415845     10.842240
O    -1.296793     6.800713     10.208319
H    -0.796476     6.952566     9.366283
H    -3.567656     8.630636     6.676939
O    -3.736376     9.095717     5.835743
H    -4.281435     8.470486     5.344202
H     0.609260     7.050674     7.413019
O    -0.290489     7.115511     7.791613
H    -0.858501     7.124529     6.970676
N    -3.506929     7.610436     8.274506
H    -4.167439     6.919092     8.418349
H    -2.874246     7.513311     8.999795
