603

H     0.202917     3.021656    -0.669761
O     0.726537     2.354408    -1.163648
H     1.664927     2.482997    -0.889377
H    -0.082902    -1.258180     3.080453
O     0.390241    -0.567564     2.586317
H    -0.073128     0.256052     2.824679
H    -2.395984     2.400441    -0.528322
O    -2.183958     1.929500     0.295003
H    -2.202271     0.981542     0.069839
H    -4.659194     0.537195     2.185837
O    -4.978128    -0.394976     2.195741
H    -4.471052    -0.875261     1.533131
H     0.069418    -0.319266     0.960274
O    -0.129492    -0.083205     0.032680
H     0.207536     0.814151    -0.087862
H    -0.266048    -3.564810     3.680980
O    -0.648525    -2.763391     4.076004
H    -0.401806    -2.816421     5.028798
H    -4.884019     2.519656     1.337187
O    -4.243452     2.112059     1.951887
H    -3.401387     2.092992     1.438442
H    -3.246125     3.889224    -2.203026
O    -2.507857     3.292904    -1.972568
H    -2.149751     3.005225    -2.832404
H    -0.119104    -3.812459     0.509650
O     0.222588    -2.998901     0.934089
H    -0.566596    -2.511496     1.241091
H    -2.372048    -1.552523     2.474278
O    -2.186621    -2.016346     1.631599
H    -2.444760    -1.427416     0.903985
H     2.074994    -1.453764    -1.111848
O     2.307767    -1.708174    -0.195014
H     1.518006    -2.135067     0.190313
H    -1.390384     1.813306     1.918844
O    -1.477009     1.415715     2.795331
H    -1.467501     2.128024     3.460223
H     0.212250    -2.712296    -1.564388
O    -0.542620    -2.100061    -1.619628
H    -0.364483    -1.374669    -0.984127
H    -3.432916    -2.937673    -0.386694
O    -2.715838    -3.427562    -0.810569
H    -2.006104    -2.795645    -1.025508
H     2.772359     0.115121     2.935515
O     2.886549    -0.060318     3.896935
H     2.970686     0.834735     4.298479
H    -3.527676     6.370123    -0.532707
O    -3.288990     7.033475    -1.232228
H    -3.147848     7.878124    -0.761031
H     3.904232     0.573216     1.192252
O     2.953942     0.391676     1.308465
H     2.715080    -0.360754     0.729815
H    -5.778588     0.832638    -1.598264
O    -4.868296     1.160811    -1.473035
H    -4.979586     1.988481    -0.960363
H    -1.211002     5.385237     2.220888
O    -1.835251     4.637839     2.103105
H    -1.914445     4.218581     2.965217
H     3.494884     2.752479     0.434709
O     3.248707     2.711298    -0.504769
H     3.580288     1.868609    -0.855946
H     1.494522    -4.705208    -2.247196
O     1.560257    -3.928983    -1.672899
H     2.353822    -3.466863    -2.024576
H    -0.918691    -0.093441    -2.542433
O    -0.284136     0.559174    -2.865661
H    -0.024727     1.141085    -2.128091
H     1.702744    -4.695536    -0.174647
O     1.811857    -5.334079     0.566459
H     1.345748    -6.143728     0.270275
H    -1.223627    -3.273914    -2.876482
O    -1.048129    -3.956577    -3.537525
H    -0.923264    -4.803825    -3.068779
H    -2.779444     3.293351     4.713197
O    -1.797906     3.292180     4.680631
H    -1.506690     2.885942     5.515755
H     0.962085     5.021161     4.086362
O     0.016210     5.253382     4.138768
H    -0.456707     4.450224     4.395590
H    -1.725309    -4.659683    -0.369151
O    -0.960010    -5.201819    -0.086566
H    -1.309414    -5.886846     0.492857
H    -3.915779     5.823828    -2.588231
O    -4.266259     4.989915    -2.918693
H    -4.111362     4.955805    -3.886885
H    -2.427222    -3.704725     1.937870
O    -2.441936    -4.619176     2.288224
H    -1.504992    -4.845432     2.453834
H    -4.691950    -2.987834    -2.895834
O    -3.839647    -3.220478    -3.302547
H    -3.508712    -4.013963    -2.836958
H     0.338296     1.360500     4.623245
O     0.849038     2.119361     4.292395
H     0.890964     2.781406     4.996645
H    -4.651769    -5.179653    -1.569209
O    -5.354088    -4.826709    -0.996009
H    -5.141351    -5.181149    -0.111479
H     2.330940    -6.488327    -4.038374
O     1.994644    -6.160049    -3.184442
H     2.428124    -6.734865    -2.521689
H     0.470554    -3.385942    -4.001636
O     1.273453    -3.018860    -4.424637
H     0.953606    -2.646560    -5.272694
H     2.017922    -1.775473     2.955547
O     2.108917    -2.732390     2.819504
H     1.492312    -2.917585     2.080497
H    -3.011875    -1.817124    -3.205589
O    -2.589385    -0.930644    -3.141094
H    -3.245518    -0.284890    -3.459127
H    -3.189471     4.964137     1.089344
O    -3.970645     5.338636     0.634889
H    -4.386389     5.895256     1.341628
H     0.877438     2.241556     2.599449
O     0.979980     2.239543     1.628494
H     1.704908     1.614253     1.463371
H     0.191443     5.647451    -0.747861
O     0.713565     6.309827    -1.255737
H     0.854738     7.109291    -0.699380
H     0.343790     7.024286     2.602563
O    -0.017925     6.644443     1.784760
H     0.646005     5.973962     1.522958
H    -2.462251     0.268716     3.328520
O    -2.716338    -0.553630     3.808694
H    -1.957626    -0.611121     4.427027
H    -0.871835     0.623212     6.023187
O    -0.597436     0.081073     5.256980
H     0.191197    -0.435342     5.557412
H     0.694844    -5.106441     1.908254
O     0.186106    -5.169296     2.742908
H     0.286085    -6.105630     2.995416
H    -2.115416    -8.098796     0.448462
O    -1.791311    -7.612795     1.234096
H    -2.576939    -7.300186     1.690519
H    -0.378264     6.855663    -2.313889
O    -1.124689     7.276077    -2.812613
H    -1.914747     7.148913    -2.249177
H    -1.112270     4.298989     0.583165
O    -0.739029     4.361258    -0.312721
H    -1.445467     4.119319    -0.945439
H    -4.408307     2.733409     3.516000
O    -4.406015     2.902902     4.480659
H    -4.489695     2.019073     4.888789
H     1.956942    -3.604780     4.436721
O     2.071109    -4.084250     5.283947
H     2.757204    -3.552028     5.749253
H     4.688067    -3.204284     0.844152
O     4.529767    -3.128455    -0.122128
H     3.670294    -2.651499    -0.207039
H    -2.720389    -0.757436    -1.347312
O    -3.046838    -0.486681    -0.472914
H    -3.848761     0.037197    -0.678695
H    -1.614310    -0.767433    -4.626383
O    -1.106657    -0.550904    -5.429872
H    -0.397392     0.045629    -5.143590
H     1.797599    -1.722076    -3.371578
O     1.890279    -0.976016    -2.747623
H     1.112483    -0.399106    -2.877913
H     3.650887    -3.141752     2.570818
O     4.611760    -3.361379     2.485712
H     4.676664    -4.321699     2.606694
H     3.424682    -6.126299     3.125494
O     3.783248    -5.932955     2.226974
H     3.047237    -5.587530     1.680360
H    -3.341735     1.604178    -4.170474
O    -4.186582     1.133375    -3.980600
H    -4.404462     1.277717    -3.023640
H    -5.081497     4.137353     0.074985
O    -5.519458     3.271254    -0.029492
H    -6.450171     3.390006    -0.310371
H     6.736064    -1.190733    -1.358065
O     5.965027    -1.042020    -0.804270
H     5.545283    -1.909779    -0.608885
H     4.596946    -3.177063    -2.466825
O     3.729043    -3.005448    -2.882297
H     3.731837    -3.623448    -3.639099
H     4.584358    -2.327230     5.598074
O     4.277961    -2.833840     6.390281
H     4.644837    -3.726819     6.239409
H    -0.753725     6.323807     5.086315
O    -1.349748     6.899329     5.625292
H    -1.364068     7.776530     5.184140
H     4.700417    -0.145690    -1.460304
O     3.933053     0.396886    -1.722137
H     3.240316    -0.203197    -2.053043
H    -0.740865     4.516580    -4.027618
O    -1.523426     5.059798    -4.235646
H    -1.372434     5.926069    -3.812222
H     0.661111     3.195908    -2.649513
O     0.669072     3.573433    -3.557754
H     0.715780     2.810337    -4.143768
H    -5.382549    -5.204245     1.796106
O    -4.687805    -5.800276     1.438318
H    -3.845372    -5.385448     1.704258
H     7.883454    -1.697300    -4.028701
O     7.625604    -1.384739    -3.128697
H     7.138768    -0.540684    -3.284899
H     3.703541    -5.077710    -5.288017
O     4.466360    -4.705177    -4.806584
H     4.850404    -5.416910    -4.261626
H    -3.780619     0.003675     4.943238
O    -4.383299     0.467963     5.574190
H    -5.039693    -0.193148     5.867743
H     3.465894    -5.951973    -0.519902
O     4.340678    -5.705404    -0.832836
H     4.415408    -4.742655    -0.691550
H     5.002381    -0.342600    -4.154578
O     4.467625    -1.054057    -4.544962
H     4.140951    -1.637635    -3.827592
H    -1.170603     1.564548    -3.929456
O    -1.820749     2.185789    -4.314587
H    -1.463396     2.517830    -5.160761
H     4.887680    -6.330597    -2.312930
O     5.220621    -6.654552    -3.178844
H     6.038581    -7.135775    -2.992952
H     8.742646    -5.099519    -2.915562
O     8.051984    -5.517803    -2.356753
H     8.086150    -6.474963    -2.460552
H     2.339153     4.709801     0.461007
O     1.761179     4.691024     1.233102
H     1.402993     3.770736     1.309577
H    -4.439811    -2.657369     4.225721
O    -5.331587    -2.296108     4.027779
H    -5.179094    -1.518176     3.454593
H    -5.844021    -3.207405     1.322084
O    -6.306520    -3.765088     1.989368
H    -6.119667    -3.327058     2.840420
H     1.686060     3.456616     6.871172
O     1.063265     3.970817     6.337151
H     0.279606     4.123529     6.908639
H     5.000171    -2.182837     3.621760
O     5.021072    -1.467741     4.289739
H     4.212265    -0.906218     4.128227
H     2.389067    -5.692028     4.856045
O     2.781252    -6.558209     4.584219
H     2.054707    -7.140931     4.340760
H     2.258987    -4.521503    -6.787640
O     2.090815    -5.010230    -5.972034
H     1.825133    -4.319481    -5.316381
H     6.441913    -4.112900    -0.500870
O     7.194599    -4.516395    -0.036872
H     7.702417    -4.938348    -0.757926
H    -1.724220     4.472042     7.711514
O    -0.824485     4.570547     8.096079
H    -0.645182     5.529963     8.121672
H    -5.117650     5.687237    -5.586381
O    -4.509698     4.924024    -5.607205
H    -3.752649     5.138925    -6.173205
H     3.283099    -2.531597    -8.432852
O     3.195707    -3.064749    -7.631839
H     4.072297    -3.040630    -7.203090
H    -0.659790     8.818476    -2.266112
O    -0.536635     9.646813    -1.747010
H     0.225527     9.472108    -1.170264
H     2.126864    -0.688088     5.229454
O     1.621968    -1.138356     5.934734
H     1.766328    -0.626670     6.745567
H     5.207434    -2.030311    -5.688570
O     5.554200    -2.796194    -6.210783
H     5.279832    -3.586536    -5.694117
H     5.699013    -5.228516     4.686780
O     5.176146    -5.144580     5.514001
H     4.454285    -5.776173     5.428751
H    -3.971562     1.132678     7.014929
O    -3.782600     1.614041     7.856640
H    -4.660184     1.994729     8.117177
H    -1.851170     9.605325    -0.733074
O    -2.711366     9.478609    -0.258357
H    -3.322946     10.106793    -0.646089
H    -5.947754     4.680988    -2.929369
O    -6.856228     4.562463    -3.274163
H    -6.765734     3.860105    -3.951287
H     0.096913    -7.073746    -1.141701
O     0.561225    -7.510069    -0.394152
H    -0.118778    -7.705554     0.253797
H    -7.636854     3.781731    -1.965291
O    -7.898130     3.194588    -1.225436
H    -7.754907     2.285896    -1.565059
H     3.984416    -0.907679     6.989225
O     3.986802     0.056445     6.985656
H     4.795353     0.353725     6.551570
H     2.258840     5.787246    -1.169591
O     3.194565     5.494633    -1.055692
H     3.370994     4.955122    -1.849382
H     6.553103    -5.939781     0.673864
O     6.185254    -6.675085     1.209860
H     5.279285    -6.399994     1.432447
H    -3.867215     4.713592     7.790114
O    -3.299201     4.251771     7.131866
H    -3.493474     3.307772     7.241058
H     5.764446    -7.955788     0.138635
O     5.476467    -8.642574    -0.498625
H     4.647087    -8.317326    -0.892966
H    -0.558502     2.030802     7.701659
O    -1.185393     1.955977     6.963316
H    -2.055561     1.817455     7.357881
H    -6.380378    -0.133428     1.067659
O    -6.702671    -0.214397     0.154932
H    -7.620740    -0.487116     0.174753
H    -5.370943    -3.073834    -0.583994
O    -5.117200    -2.371024     0.040317
H    -5.688670    -1.598884    -0.145262
H     4.317987     5.567943     0.329796
O     4.651814     5.667632     1.235194
H     3.957432     6.178156     1.687507
H    -9.043068    -1.754479    -2.247861
O    -8.494706    -1.553295    -1.462252
H    -8.621634    -2.290075    -0.824449
H    -5.523916     3.464266    -5.519219
O    -6.041212     2.753400    -5.104886
H    -5.374709     2.167644    -4.691347
H     3.181379    -0.894782    -5.649893
O     2.325536    -1.014546    -6.115776
H     2.410790    -1.863397    -6.589483
H     8.115494    -1.355610    -6.024012
O     8.123778    -2.219786    -5.567828
H     7.267623    -2.619673    -5.818925
H     7.621263     0.985071    -6.303735
O     7.432594     0.136734    -6.717021
H     6.451212     0.086743    -6.753639
H    -7.859274    -3.702791     0.934966
O    -8.537357    -3.595937     0.249964
H    -8.439259    -4.355698    -0.351130
H    -2.407711     8.726127     1.304888
O    -2.256240     8.137434     2.057673
H    -1.486356     7.584350     1.834033
H    -4.443938     6.423109     3.507490
O    -4.614039     6.849869     2.651333
H    -3.850724     7.435972     2.512171
H     3.401268     3.438931    -3.569277
O     3.247950     4.408107    -3.475120
H     2.282991     4.472595    -3.582732
H    -6.115159    -1.613352    -3.436961
O    -6.197732    -2.193428    -2.653707
H    -6.981475    -1.886850    -2.144151
H     6.468556     1.037407     4.746513
O     6.073681     1.573976     5.450773
H     6.260844     2.493543     5.160590
H     1.362153     1.716002    -5.815522
O     1.168262     1.119899    -5.061321
H     1.530987     0.256751    -5.331809
H    -2.487390     2.945551     10.492665
O    -2.274278     2.038845     10.217071
H    -2.873170     1.841266     9.484684
H     7.628673    -0.508754     3.088484
O     6.877952     0.065131     3.260169
H     6.186708    -0.536196     3.637751
H    -5.657561    -8.063826    -0.699456
O    -4.922263    -8.132815    -0.053613
H    -4.926670    -7.316079     0.469558
H    -5.176919    -0.125732    -4.709027
O    -5.793590    -0.837438    -4.949968
H    -6.632083    -0.395965    -5.147010
H     1.890153    -0.203699    -7.509141
O     1.688828     0.268731    -8.352761
H     2.265224    -0.136410    -9.006144
H     4.872601    -1.397415    -9.299087
O     3.947433    -1.168444    -9.581018
H     3.927063    -1.285719    -10.530128
H     7.566390    -2.582739     4.203361
O     7.710941    -2.618463     3.243708
H     7.218932    -3.409952     2.971672
H     6.720601    -5.905721     2.687653
O     6.782020    -5.232316     3.391257
H     7.659461    -5.316718     3.806348
H    -1.821076     8.935851     3.508927
O    -1.573170     9.240009     4.407430
H    -2.421935     9.372013     4.863164
H    -7.389967     1.560756    -5.243091
O    -7.964604     0.816236    -4.998873
H    -8.866371     1.215543    -4.922248
H     6.926465    -1.087570    -8.399193
O     6.344772    -1.808711    -8.663153
H     6.116900    -2.258971    -7.831424
H    -1.676888     6.235909    -7.012441
O    -2.074368     5.410230    -6.739554
H    -1.826170     5.278886    -5.775921
H     0.003913     3.293912     9.032067
O     0.200769     2.373674     9.286185
H    -0.599391     2.111269     9.791691
H     6.756877    -2.787696    -2.700781
O     6.227300    -3.532221    -2.358814
H     6.695089    -4.342804    -2.607425
H    -4.077016    -3.080063    -4.938679
O    -4.230739    -2.966779    -5.903570
H    -4.778620    -2.174091    -5.959162
H     1.977773     2.167844     8.475083
O     2.639772     2.278202     7.782590
H     3.071583     1.413058     7.670455
H    -6.906881    -5.210760    -1.391299
O    -7.822197    -5.480860    -1.637575
H    -7.956011    -5.077398    -2.519964
H    -3.827117     5.242801     5.707064
O    -3.794392     6.011903     5.116990
H    -2.860551     6.306096     5.211213
H    -7.884318     0.079173    -1.958702
O    -7.395172     0.803184    -2.372419
H    -7.623554     0.792069    -3.325519
H     5.838429     0.120774     0.417375
O     5.616687     0.841803     1.038956
H     6.126917     0.646891     1.851429
H    -6.216270     3.297214     7.404109
O    -6.089299     2.779813     8.233284
H    -6.687265     2.016757     8.144177
H     2.277422    -8.082743    -0.841795
O     2.956509    -8.070431    -1.536096
H     2.731708    -8.783403    -2.150627
H    -2.744147    -3.967928    -6.192499
O    -1.989908    -4.533734    -5.961404
H    -1.714097    -4.242886    -5.063831
H    -5.643106     3.748344     5.318639
O    -6.292403     4.145465     5.935382
H    -6.128667     5.089455     5.922211
H    -1.017884    -7.122508    -3.159797
O    -0.544612    -6.453182    -2.631712
H     0.362093    -6.383105    -3.013627
H     4.446433     2.006882     5.135901
O     3.504385     2.244642     5.016700
H     3.119482     2.264415     5.897958
H     4.109460     4.645761     6.309993
O     4.191643     5.375340     5.691555
H     3.623235     5.135813     4.920705
H     2.764600     3.606455     3.929976
O     2.588321     4.546862     3.765710
H     2.467521     4.646541     2.799352
H     9.393852     0.202890    -1.065623
O     8.588569     0.365490    -0.570728
H     8.412375    -0.454294    -0.079467
H    -2.100539     5.305600     10.661039
O    -2.821291     4.675849     10.892503
H    -3.041519     4.854170     11.806994
H     7.973860    -3.019051     0.331194
O     8.394984    -2.172601     0.587096
H     8.329565    -2.168021     1.549297
H     5.372157     3.654153     3.532817
O     6.026772     3.916304     4.202262
H     5.615282     4.636619     4.701810
H    -4.209314     5.006919     9.795035
O    -4.842030     5.159294     9.073154
H    -5.454101     4.410771     9.069189
H    -7.010401    -3.485843    -3.479990
O    -7.630907    -4.097173    -3.929203
H    -7.109792    -4.538969    -4.631413
H     0.028673     6.115366     10.780919
O    -0.836298     6.446055     10.534183
H    -0.721385     6.877095     9.667977
H     2.589365     1.488821    -4.098302
O     3.468040     1.841058    -3.859491
H     3.787836     1.325886    -3.088998
H    -6.968542    -0.234050     7.229381
O    -7.477736     0.544480     7.508313
H    -8.102112     0.725948     6.804752
H    -2.742440    -9.882240    -0.827821
O    -2.678912    -8.940651    -0.987763
H    -3.584813    -8.573905    -0.746210
H    -10.068777     3.069248    -4.888661
O    -10.185869     2.151595    -4.608611
H    -10.401387     2.234912    -3.658750
H    -2.258375    -3.164110     4.419065
O    -3.111208    -3.620862     4.626171
H    -3.152701    -4.276799     3.907672
H    -0.177044    -7.992394     2.491975
O     0.650485    -7.780062     2.937137
H     1.367008    -8.078674     2.349671
H     6.710112    -2.386120     6.397489
O     7.159868    -3.094478     5.932171
H     6.533188    -3.831564     5.892530
H    -5.260209    -2.027135     6.955690
O    -5.930766    -1.524700     6.474459
H    -5.921584    -1.898846     5.562207
H     0.836040     3.027124    -7.106312
O     1.753772     2.696513    -7.162953
H     1.739692     1.949192    -7.788999
H    -3.955137     8.744395     6.684579
O    -3.952048     8.742819     5.727220
H    -4.077933     7.815497     5.458916
H    -2.059913     10.306526    -2.725233
O    -2.961697     10.488299    -3.026523
H    -2.890361     11.122235    -3.739481
H     9.413228    -4.073813     4.046270
O     9.131214    -4.750918     4.668951
H     8.705698    -4.276975     5.394247
H    -0.734639    -6.003620    -5.836359
O    -0.030872    -6.570272    -5.503630
H     0.804427    -6.108528    -5.721340
H     1.825638     8.266113     0.675021
O     1.522401     8.588552    -0.202230
H     2.336863     8.626628    -0.732991
H     3.498065     2.923808    -6.654715
O     4.325831     2.633568    -6.245694
H     4.080636     2.359517    -5.336905
H     3.733186     7.116628    -1.220349
O     3.939392     8.052425    -1.433185
H     4.308039     7.996780    -2.326767
H     4.394696    -0.012768    -7.905495
O     4.772311     0.133327    -7.036262
H     4.590219     1.065097    -6.792261
H     6.030725     1.924734    -0.469197
O     6.596437     2.117991    -1.230568
H     7.420895     1.638132    -1.036819
H     6.685032    -8.440191    -1.604964
O     7.321198    -8.228704    -2.340893
H     7.687540    -9.062627    -2.630221
H    -5.301359    -5.794659    -5.402792
O    -5.918349    -5.122697    -5.717951
H    -5.367201    -4.354240    -5.953842
H     0.683097     7.161693     7.611484
O    -0.218205     7.187987     7.971457
H    -0.774141     7.203177     7.154159
H    -8.897351    -2.840583    -4.095621
O    -9.418105    -2.032198    -3.928371
H    -9.131612    -1.367075    -4.558026
H    -2.409897    -5.996440    -2.138356
O    -3.287447    -5.709465    -2.408003
H    -3.474904    -6.084336    -3.293446
H    -2.986338    -5.906279    -5.405372
O    -3.586130    -6.516445    -4.933665
H    -3.104142    -7.336628    -4.766908
H    -1.390910     3.721317    -6.974098
O    -0.850254     2.965546    -6.704003
H    -1.087721     2.180545    -7.253885
H    -0.204827     0.412406    -8.208994
O    -1.100703     0.647721    -7.925232
H    -1.275902     0.123696    -7.127542
H    -10.422884     4.045826    -2.723856
O    -10.490457     3.266862    -2.156192
H    -9.660970     3.239813    -1.647490
H     4.580059     4.071211     1.728657
O     4.374308     3.150096     2.009082
H     5.088813     2.574712     1.723442
H     6.485457     1.391123    -4.213383
O     6.183098     0.766645    -3.519340
H     6.213560     1.262231    -2.675655
H     9.633500    -2.234466    -0.925681
O     9.909973    -2.019255    -1.825252
H     9.109374    -1.680850    -2.268602
H     9.969644    -3.328328    -3.095355
O     9.702106    -3.980351    -3.770057
H     9.308442    -3.472658    -4.490315
H    -7.698017    -8.582529    -1.661026
O    -6.960220    -7.988514    -1.791208
H    -7.337628    -7.075294    -1.780208
H     4.160119     6.074285    -3.812028
O     4.821258     6.775471    -3.726772
H     5.657528     6.321468    -3.589944
H     0.097844    -8.176941    -5.212481
O     0.122618    -9.159877    -5.081028
H     0.272039    -9.523245    -5.953935
H    -2.333044    -8.680854    -2.712595
O    -2.098385    -8.416784    -3.621977
H    -1.452310    -9.035741    -3.980697
H     2.183961    -10.823612    -3.493902
O     2.138459    -9.869029    -3.469605
H     1.352782    -9.598025    -3.995486
H     6.835248     3.324119    -4.567625
O     6.893379     2.645941    -5.268494
H     6.099862     2.779208    -5.809156
H    -3.570756    -3.555043     7.824973
O    -3.658576    -2.879056     7.151929
H    -3.455253    -3.319267     6.291606
H    -0.638232    -3.367789    -6.718998
O    -0.007793    -2.636461    -6.726394
H    -0.489539    -1.861129    -6.384335
H     0.634972     0.532935     8.958157
O     0.584841    -0.254532     8.403447
H    -0.375420    -0.401217     8.292667
H    -5.835051     7.361605    -4.240258
O    -6.337867     6.743040    -4.801652
H    -6.624641     6.011613    -4.210846
H    -4.279466     9.096647    -3.251422
O    -4.815006     8.300368    -3.145537
H    -4.406532     7.820439    -2.406932
H    -9.712251     5.790916    -4.635085
O    -10.245446     4.986117    -4.471798
H    -11.126250     5.186982    -4.790048
H     2.769710     6.505298     6.148966
O     1.809811     6.601442     6.247988
H     1.465473     5.688614     6.144184
H     4.803314     8.539257     0.093848
O     5.121285     8.539694     1.014619
H     5.528184     7.675312     1.144870
H     4.143227    -7.432809    -4.340052
O     3.385294    -7.717299    -4.882535
H     3.104679    -8.558365    -4.506855
H     0.376978     8.649623     4.244592
O     1.055357     8.005642     4.016459
H     1.281396     7.512385     4.830885
H     5.234838     4.184649    -3.150277
O     6.196327     4.154649    -3.097662
H     6.405354     3.573000    -2.350079
H    -2.619651    -1.456204     7.581564
O    -2.136903    -0.658944     7.881024
H    -2.808660    -0.081094     8.261692
H    -9.028767     7.930476    -4.134253
O    -8.965519     7.346605    -4.891582
H    -8.008435     7.182489    -5.026736
H     3.531000    -8.989740     1.090103
O     2.855270    -8.358592     1.343105
H     3.329991    -7.552814     1.620531
H     3.584371     8.163303     1.839401
O     2.794589     7.598919     1.951999
H     2.347735     7.834887     2.777729
N    -0.203835    -3.358162     6.694123
H     0.661746    -3.697853     6.385382
H     0.042689    -2.578009     7.203030
