39

H    -3.399096     6.442824    -0.497474
O    -3.225301     7.101982    -1.230330
H    -3.043475     7.953101    -0.779313
H    -3.722140     5.841504    -2.776887
O    -4.160153     5.033251    -3.066930
H    -3.931269     4.926010    -4.018953
H    -3.117747     5.005488     1.126288
O    -3.894289     5.377881     0.645191
H    -4.312852     5.934673     1.350856
H    -5.051632     4.145243     0.023868
O    -5.514857     3.295377    -0.063916
H    -6.437835     3.386084    -0.383232
H    -4.951151     5.623783    -5.789815
O    -4.381204     4.824957    -5.778186
H    -3.624384     4.988184    -6.366377
H    -5.905472     4.758340    -3.096840
O    -6.819957     4.621074    -3.429312
H    -6.690873     3.881137    -4.072845
H    -7.600860     3.742092    -2.107187
O    -7.872383     3.175421    -1.350242
H    -7.698919     2.265545    -1.699175
H    -10.609473     3.960667    -2.712119
O    -10.605223     3.140902    -2.190198
H    -9.724837     3.140898    -1.773768
H    -5.690471     7.351305    -4.560732
O    -6.186636     6.746666    -5.138820
H    -6.527816     6.061454    -4.518356
H    -4.274228     9.186689    -3.179485
O    -4.815547     8.384668    -3.086912
H    -4.339421     7.869269    -2.402101
H    -9.769517     5.803024    -4.461491
O    -10.326962     4.989823    -4.463178
H    -11.141958     5.251117    -4.899063
H    -8.569403     7.521732    -3.568125
O    -8.943283     7.341000    -4.451029
H    -8.147164     7.306538    -5.003895
N    -7.479941     7.934343    -2.056485
H    -7.338139     7.266945    -1.378246
H    -6.587826     8.227647    -2.314484
