30

H     4.336262    -2.374669     5.674269
O     4.008167    -2.930219     6.413616
H     4.419817    -3.797179     6.235955
H     4.921119    -2.169640     3.584257
O     4.948684    -1.454169     4.253206
H     4.121969    -0.913210     4.091526
H     3.600063    -1.173144     7.491907
O     3.802598    -0.229832     7.433315
H     4.768931    -0.219594     7.325747
H     6.732359     1.160270     4.443455
O     6.397919     1.674798     5.211230
H     6.484924     2.615604     4.923619
H     7.477359    -0.687680     2.914693
O     6.843166    -0.003720     3.170997
H     6.102372    -0.548428     3.558495
H     7.661193    -2.641402     4.133405
O     7.829074    -2.693776     3.170768
H     7.309170    -3.476433     2.915343
H     1.877895     2.251267     8.510605
O     2.627829     2.244596     7.895445
H     2.895856     1.306182     7.839895
H     4.531234     1.980692     5.117976
O     3.594812     2.230114     5.035743
H     3.206115     2.147663     5.917021
H     7.053669    -2.084602     6.286890
O     7.354862    -2.932704     5.914656
H     6.601081    -3.530520     5.983733
N     6.649103    -0.309150     7.020434
H     7.185721    -0.109691     7.792690
H     6.700276     0.495463     6.450064
