603

H     0.182581     3.037045    -0.690572
O     0.706262     2.370544    -1.184499
H     1.645635     2.500107    -0.911550
H    -0.078251    -1.296552     3.143688
O     0.310850    -0.595729     2.597871
H    -0.168680     0.216545     2.831189
H    -2.417001     2.409034    -0.545617
O    -2.202331     1.941704     0.279408
H    -2.216557     0.993224     0.056307
H    -4.671158     0.544939     2.178706
O    -4.986362    -0.388790     2.193073
H    -4.481286    -0.866524     1.526878
H     0.055646    -0.301190     0.943052
O    -0.144546    -0.065411     0.016447
H     0.193947     0.831063    -0.105933
H    -0.150696    -3.565781     3.773950
O    -0.430764    -2.735587     4.193577
H     0.215860    -2.563029     4.894434
H    -4.901200     2.526533     1.324381
O    -4.259149     2.120887     1.938646
H    -3.417454     2.103019     1.423998
H    -3.275581     3.887207    -2.223264
O    -2.537287     3.293824    -1.986996
H    -2.175239     3.010722    -2.847242
H    -0.125511    -3.798115     0.499638
O     0.212861    -2.978975     0.915690
H    -0.575338    -2.494388     1.228111
H    -2.381182    -1.534516     2.465858
O    -2.192284    -2.001086     1.625320
H    -2.452795    -1.415729     0.895169
H     2.064291    -1.433922    -1.131469
O     2.297520    -1.684074    -0.213663
H     1.510195    -2.113942     0.171526
H    -1.402862     1.830142     1.901842
O    -1.492907     1.433902     2.778608
H    -1.478559     2.146818     3.442891
H     0.202218    -2.698691    -1.576218
O    -0.554934    -2.088797    -1.630247
H    -0.376379    -1.361466    -0.997439
H    -3.440919    -2.927707    -0.391607
O    -2.723008    -3.418744    -0.812388
H    -2.014674    -2.786902    -1.032999
H     2.765690     0.145692     2.919906
O     2.866295    -0.035049     3.881747
H     2.956368     0.858395     4.285174
H    -3.603560     6.389790    -0.465234
O    -3.410888     7.078132    -1.166842
H    -3.337502     7.928420    -0.691307
H     3.891216     0.600770     1.170197
O     2.940973     0.417759     1.287343
H     2.705015    -0.336543     0.709706
H    -5.796958     0.832632    -1.606443
O    -4.887169     1.162485    -1.481897
H    -4.998849     1.991001    -0.971475
H    -1.232625     5.402998     2.195832
O    -1.857410     4.655986     2.079096
H    -1.932836     4.236502     2.941603
H     3.477044     2.777336     0.407126
O     3.226165     2.733386    -0.531274
H     3.561327     1.891852    -0.882347
H     1.488476    -4.690037    -2.256151
O     1.551918    -3.911789    -1.684170
H     2.345087    -3.449460    -2.037087
H    -0.936182    -0.085004    -2.556847
O    -0.303867     0.568975    -2.881714
H    -0.044393     1.151806    -2.145333
H     1.699503    -4.675556    -0.185158
O     1.808779    -5.311126     0.558391
H     1.347171    -6.123970     0.264048
H    -1.233699    -3.266148    -2.883341
O    -1.059703    -3.949967    -3.543425
H    -0.930428    -4.796017    -3.073584
H    -2.792935     3.314787     4.694661
O    -1.811725     3.315552     4.658807
H    -1.516421     2.914969     5.494875
H     0.944117     5.048996     4.058409
O    -0.002634     5.278987     4.109802
H    -0.471880     4.475141     4.371015
H    -1.730588    -4.649173    -0.372365
O    -0.963647    -5.187375    -0.087535
H    -1.308675    -5.874610     0.491822
H    -4.075929     5.788235    -2.504049
O    -4.345541     4.946562    -2.878409
H    -4.162027     4.961444    -3.852433
H    -2.429774    -3.686377     1.934984
O    -2.445486    -4.589913     2.312338
H    -1.504920    -4.825738     2.451576
H    -4.703486    -2.988793    -2.897464
O    -3.851084    -3.219643    -3.304739
H    -3.517406    -4.012082    -2.839318
H     0.331968     1.390202     4.603040
O     0.834193     2.151971     4.267050
H     0.883772     2.811039     4.973748
H    -4.655994    -5.176815    -1.566897
O    -5.357632    -4.824085    -0.992431
H    -5.142403    -5.177196    -0.108254
H     2.324943    -6.475035    -4.044326
O     1.988457    -6.146073    -3.190630
H     2.425388    -6.718077    -2.527443
H     0.457860    -3.376922    -4.011820
O     1.259127    -3.008222    -4.436105
H     0.937918    -2.638731    -5.284885
H     1.961669    -1.737998     2.971641
O     2.118688    -2.668755     2.755320
H     1.432378    -2.885067     2.089644
H    -3.026493    -1.814066    -3.212386
O    -2.606654    -0.926308    -3.148452
H    -3.263867    -0.282999    -3.469145
H    -3.209615     4.979998     1.060796
O    -3.989162     5.357978     0.605606
H    -4.407671     5.906928     1.317214
H     0.863496     2.265443     2.577242
O     0.963459     2.261010     1.605819
H     1.691002     1.638349     1.441215
H     0.161914     5.663037    -0.779332
O     0.672765     6.332073    -1.291854
H     0.828897     7.126034    -0.729627
H     0.318647     7.046736     2.570848
O    -0.043342     6.666099     1.753275
H     0.620823     5.994621     1.493810
H    -2.486805     0.220238     3.334963
O    -2.705883    -0.593455     3.841388
H    -1.944195    -0.630551     4.461849
H    -0.897490     0.565981     6.016481
O    -0.623094     0.047065     5.241859
H     0.092066    -0.554839     5.528148
H     0.713620    -4.983673     1.976074
O     0.172869    -5.093295     2.781574
H     0.320243    -6.013231     3.054681
H    -2.109677    -8.086352     0.452321
O    -1.787293    -7.596396     1.236316
H    -2.573662    -7.286722     1.693293
H    -0.398652     6.854505    -2.264322
O    -1.183452     7.247867    -2.735429
H    -1.931438     7.103742    -2.105787
H    -1.133838     4.314184     0.557776
O    -0.765401     4.379274    -0.340002
H    -1.471871     4.126670    -0.969476
H    -4.421977     2.747364     3.500662
O    -4.419491     2.919773     4.464819
H    -4.499892     2.037071     4.875569
H     2.027944    -3.565726     4.236188
O     1.966343    -4.036697     5.090230
H     2.473649    -3.498327     5.719231
H     4.685663    -3.176367     0.826261
O     4.523448    -3.102109    -0.140036
H     3.663252    -2.627232    -0.222737
H    -2.734214    -0.750256    -1.356178
O    -3.060410    -0.479235    -0.481513
H    -3.863051     0.043319    -0.687914
H    -1.632681    -0.764224    -4.637464
O    -1.128142    -0.547978    -5.442682
H    -0.418825     0.050378    -5.160154
H     1.782975    -1.708902    -3.387497
O     1.874087    -0.961138    -2.765173
H     1.095285    -0.386224    -2.896361
H     3.663211    -3.104179     2.539298
O     4.622692    -3.330668     2.465063
H     4.680050    -4.290572     2.592803
H     3.434425    -6.102982     3.116166
O     3.788174    -5.902232     2.215192
H     3.048908    -5.559403     1.672941
H    -3.365930     1.603353    -4.185329
O    -4.209946     1.131590    -3.992286
H    -4.425112     1.277790    -3.035537
H    -5.103204     4.144471     0.056852
O    -5.539927     3.277653    -0.041510
H    -6.470813     3.392579    -0.324442
H     6.723278    -1.161796    -1.381857
O     5.951619    -1.013267    -0.828834
H     5.535276    -1.881911    -0.629596
H     4.586098    -3.155565    -2.483500
O     3.716983    -2.986825    -2.897989
H     3.720650    -3.606371    -3.653585
H     4.437740    -2.269810     5.608006
O     4.096972    -2.735021     6.402242
H     4.434225    -3.639308     6.321354
H    -0.772503     6.348860     5.058177
O    -1.370268     6.924196     5.595741
H    -1.385248     7.800745     5.154078
H     4.685119    -0.121025    -1.483457
O     3.915587     0.419118    -1.744985
H     3.224646    -0.183864    -2.073977
H    -0.642017     4.451844    -4.055167
O    -1.458328     4.961313    -4.248558
H    -1.354307     5.774763    -3.725685
H     0.645814     3.198644    -2.669182
O     0.657506     3.575620    -3.578109
H     0.694943     2.814897    -4.167786
H    -5.379977    -5.197457     1.800009
O    -4.682460    -5.790804     1.444237
H    -3.842440    -5.372763     1.713115
H     7.867208    -1.671450    -4.054331
O     7.610003    -1.357560    -3.154609
H     7.121140    -0.515022    -3.311667
H     3.692822    -5.064472    -5.299535
O     4.455043    -4.688719    -4.819912
H     4.842175    -5.398329    -4.274173
H    -3.788153     0.022646     4.931066
O    -4.389052     0.486499     5.563710
H    -5.047039    -0.172945     5.857816
H     3.465826    -5.928977    -0.527142
O     4.337504    -5.680249    -0.846574
H     4.411866    -4.717573    -0.704586
H     4.983326    -0.323815    -4.178170
O     4.448568    -1.036744    -4.565883
H     4.125400    -1.620099    -3.846784
H    -1.193801     1.567535    -3.948136
O    -1.848532     2.184666    -4.331193
H    -1.495951     2.521762    -5.177188
H     4.884319    -6.307924    -2.324571
O     5.216402    -6.633228    -3.190330
H     6.035849    -7.112023    -3.004408
H     8.735683    -5.069593    -2.935899
O     8.046292    -5.488209    -2.375811
H     8.083107    -6.445575    -2.476759
H     2.316872     4.731283     0.431857
O     1.735431     4.714742     1.201433
H     1.383459     3.792412     1.283839
H    -4.414173    -2.632702     4.232461
O    -5.309252    -2.295294     4.031228
H    -5.175186    -1.514843     3.454296
H    -5.848412    -3.201110     1.321604
O    -6.308835    -3.758112     1.991514
H    -6.119883    -3.321250     2.841191
H     1.677502     3.488612     6.844951
O     1.052450     4.002259     6.311572
H     0.270022     4.153628     6.884458
H     5.000018    -2.146770     3.601228
O     5.019798    -1.427343     4.264205
H     4.206458    -0.873426     4.108115
H     2.399422    -5.558375     4.832474
O     2.781235    -6.441524     4.573029
H     2.037412    -7.025175     4.400876
H     2.244595    -4.513924    -6.798045
O     2.077866    -5.001483    -5.981401
H     1.812724    -4.310037    -5.326570
H     6.436707    -4.083043    -0.518632
O     7.191541    -4.483581    -0.055846
H     7.698721    -4.906237    -0.776805
H    -1.735776     4.503320     7.687573
O    -0.836434     4.604137     8.071077
H    -0.657760     5.563635     8.094563
H    -5.196459     5.629539    -5.581690
O    -4.543678     4.903902    -5.543371
H    -3.797198     5.109096    -6.147178
H     3.261002    -2.525445    -8.449058
O     3.176035    -3.056831    -7.646551
H     4.053504    -3.030045    -7.219654
H    -0.698656     8.898648    -2.083005
O    -0.544977     9.699130    -1.537897
H     0.229128     9.450874    -0.991242
H     2.065063    -0.894269     5.199690
O     1.493930    -1.420112     5.788685
H     1.589130    -1.073884     6.685392
H     5.188990    -2.013959    -5.709185
O     5.536182    -2.780247    -6.230338
H     5.264968    -3.570062    -5.711281
H     5.703179    -5.189023     4.674037
O     5.182014    -5.103859     5.501414
H     4.462119    -5.738002     5.418157
H    -3.977653     1.153650     7.002057
O    -3.785174     1.631904     7.844414
H    -4.661909     2.015206     8.106482
H    -1.878222     9.711529    -0.625543
O    -2.770590     9.564261    -0.192266
H    -3.136003     10.416790     0.054508
H    -5.977433     4.678491    -2.949790
O    -6.885557     4.560101    -3.296105
H    -6.793312     3.852246    -3.968305
H     0.097149    -7.059759    -1.143421
O     0.563694    -7.493187    -0.395721
H    -0.113962    -7.689012     0.254425
H    -7.660934     3.778034    -1.982540
O    -7.917070     3.193886    -1.238919
H    -7.774958     2.283776    -1.575912
H     3.974743    -0.866907     6.971503
O     3.980927     0.097280     6.960670
H     4.792052     0.388258     6.527589
H     2.230075     5.805539    -1.205791
O     3.163932     5.515316    -1.089093
H     3.344102     4.974976    -1.882163
H     6.553490    -5.907519     0.659472
O     6.187525    -6.643840     1.194995
H     5.282685    -6.368622     1.422790
H    -3.879591     4.738281     7.770391
O    -3.313423     4.276494     7.110153
H    -3.503356     3.332563     7.223075
H     5.769044    -7.926110     0.129776
O     5.481630    -8.614962    -0.506029
H     4.651131    -8.291957    -0.899513
H    -0.562020     2.058223     7.681329
O    -1.196432     1.992024     6.947357
H    -2.063706     1.848054     7.345754
H    -6.392960    -0.129015     1.063764
O    -6.715225    -0.212223     0.151559
H    -7.632551    -0.487731     0.171543
H    -5.377762    -3.071039    -0.584103
O    -5.126657    -2.366583     0.039737
H    -5.698839    -1.595761    -0.149045
H     4.293595     5.594564     0.294682
O     4.627480     5.697755     1.199358
H     3.932568     6.206955     1.651885
H    -9.056006    -1.762259    -2.245302
O    -8.507466    -1.558051    -1.460356
H    -8.631714    -2.294365    -0.821632
H    -5.554804     3.451484    -5.533653
O    -6.072564     2.743749    -5.113366
H    -5.404325     2.159057    -4.701062
H     3.160532    -0.882855    -5.669579
O     2.303683    -1.005905    -6.132768
H     2.390918    -1.854920    -6.606017
H     8.094921    -1.333397    -6.050849
O     8.105929    -2.196554    -5.592811
H     7.250420    -2.599059    -5.841646
H     7.594823     1.005528    -6.334973
O     7.407191     0.155718    -6.745674
H     6.425922     0.103685    -6.780911
H    -7.862979    -3.702878     0.938981
O    -8.542485    -3.598177     0.255370
H    -8.443777    -4.358467    -0.345205
H    -2.431387     8.743113     1.268200
O    -2.284868     8.153695     2.022263
H    -1.512442     7.601137     1.805396
H    -4.467117     6.436834     3.483846
O    -4.637743     6.861486     2.626465
H    -3.875482     7.448910     2.487684
H     3.377011     3.455024    -3.596853
O     3.222529     4.424080    -3.501816
H     2.258331     4.486956    -3.614526
H    -6.130271    -1.618533    -3.439160
O    -6.210362    -2.196043    -2.653583
H    -6.994707    -1.890263    -2.144712
H     6.460716     1.077981     4.717544
O     6.066102     1.617105     5.419942
H     6.252196     2.535628     5.127532
H     1.334355     1.723186    -5.837965
O     1.142077     1.128108    -5.081554
H     1.508052     0.265841    -5.350890
H    -2.491494     2.980453     10.474038
O    -2.277353     2.073068     10.201558
H    -2.875945     1.870692     9.470674
H     7.621227    -0.469036     3.061429
O     6.870016     0.104977     3.230795
H     6.180082    -0.496713     3.612314
H    -5.654113    -8.061823    -0.688676
O    -4.917918    -8.127708    -0.043493
H    -4.922789    -7.309679     0.477251
H    -5.197635    -0.131344    -4.716209
O    -5.813550    -0.845079    -4.953063
H    -6.652998    -0.405999    -5.151329
H     1.864157    -0.198789    -7.528228
O     1.659101     0.270668    -8.372458
H     2.236202    -0.133321    -9.025970
H     4.846405    -1.389970    -9.320505
O     3.920019    -1.164078    -9.600893
H     3.898664    -1.281052    -10.550035
H     7.564381    -2.540812     4.181257
O     7.709297    -2.577541     3.221509
H     7.217860    -3.370284     2.951643
H     6.726442    -5.868876     2.672348
O     6.787719    -5.192450     3.372377
H     7.664557    -5.274888     3.788794
H    -1.850304     8.955334     3.476864
O    -1.601495     9.263270     4.373222
H    -2.449172     9.392748     4.831941
H    -7.415806     1.548504    -5.249834
O    -7.988178     0.803356    -5.001848
H    -8.890976     1.200271    -4.926236
H     6.901167    -1.072786    -8.424734
O     6.320786    -1.795955    -8.686027
H     6.095541    -2.244933    -7.852933
H    -1.987033     6.244300    -6.995773
O    -2.194902     5.345150    -6.729687
H    -1.813406     5.268139    -5.806507
H    -0.004489     3.331845     9.008880
O     0.195040     2.412923     9.264779
H    -0.601711     2.147645     9.773164
H     6.745238    -2.761608    -2.722284
O     6.217208    -3.506551    -2.378944
H     6.687142    -4.316627    -2.625276
H    -4.091702    -3.083049    -4.941530
O    -4.247601    -2.972289    -5.906236
H    -4.796824    -2.180675    -5.963013
H     1.976656     2.208303     8.449160
O     2.638531     2.321358     7.757288
H     3.063069     1.452072     7.642856
H    -6.910838    -5.212717    -1.384968
O    -7.826265    -5.484562    -1.628332
H    -7.962297    -5.084064    -2.511854
H    -3.843545     5.264139     5.685041
O    -3.813034     6.031543     5.092512
H    -2.879493     6.327700     5.185745
H    -7.901385     0.074581    -1.961742
O    -7.415107     0.799511    -2.377213
H    -7.644011     0.784774    -3.330429
H     5.825041     0.151046     0.392333
O     5.602123     0.872740     1.012790
H     6.114749     0.679943     1.824869
H    -6.223733     3.315688     7.392168
O    -6.092819     2.799435     8.221436
H    -6.691238     2.036312     8.135750
H     2.282412    -8.063032    -0.843719
O     2.958217    -8.049817    -1.541090
H     2.734072    -8.765418    -2.152720
H    -2.759040    -3.970483    -6.195897
O    -2.003795    -4.534671    -5.964381
H    -1.726532    -4.241021    -5.068256
H    -5.656397     3.763978     5.303823
O    -6.305842     4.160528     5.920617
H    -6.143128     5.104686     5.907064
H    -1.020264    -7.114650    -3.159714
O    -0.548538    -6.442898    -2.633323
H     0.358138    -6.372042    -3.015956
H     4.435646     2.041979     5.108763
O     3.493320     2.279777     4.990040
H     3.110712     2.295399     5.872706
H     4.097013     4.683540     6.277718
O     4.173950     5.413268     5.658629
H     3.606020     5.169719     4.889165
H     2.750316     3.637356     3.903693
O     2.569421     4.576597     3.735788
H     2.448978     4.672875     2.769564
H     9.378266     0.237917    -1.097200
O     8.572862     0.399689    -0.602234
H     8.399905    -0.418983    -0.107808
H    -2.108207     5.340545     10.637033
O    -2.828590     4.710905     10.870332
H    -3.045570     4.888711     11.785745
H     7.967793    -2.983903     0.308977
O     8.387212    -2.135769     0.562122
H     8.323290    -2.129668     1.524545
H     5.355485     3.689749     3.501198
O     6.012234     3.958247     4.165535
H     5.598977     4.676129     4.666893
H    -4.216985     5.036728     9.775030
O    -4.851486     5.184686     9.053576
H    -5.461683     4.434677     9.053883
H    -7.021563    -3.492713    -3.476882
O    -7.641538    -4.106590    -3.923048
H    -7.120803    -4.548647    -4.625554
H     0.018679     6.153852     10.752484
O    -0.847010     6.482782     10.505787
H    -0.733425     6.912484     9.638851
H     2.565860     1.502035    -4.122474
O     3.443185     1.857768    -3.884398
H     3.766386     1.343828    -3.114432
H    -6.972447    -0.214935     7.223402
O    -7.482133     0.563185     7.502858
H    -8.107518     0.743075     6.799815
H    -2.734161    -9.873866    -0.818437
O    -2.673474    -8.932299    -0.979728
H    -3.579840    -8.567644    -0.738203
H    -10.098497     3.051259    -4.893457
O    -10.212363     2.133867    -4.611230
H    -10.427194     2.217989    -3.661479
H    -2.065581    -3.014186     4.613558
O    -2.939561    -3.455774     4.685358
H    -2.933271    -4.075147     3.930305
H    -0.168161    -7.971832     2.489533
O     0.658448    -7.758441     2.935604
H     1.376456    -8.053825     2.348171
H     6.709561    -2.342894     6.375592
O     7.159783    -3.052355     5.912354
H     6.531532    -3.788788     5.876366
H    -5.268486    -1.995985     6.947356
O    -5.946453    -1.499852     6.463720
H    -5.931347    -1.878739     5.555292
H     0.808670     3.041829    -7.130445
O     1.720332     2.697324    -7.181694
H     1.703792     1.954643    -7.813172
H    -3.975727     8.768250     6.655018
O    -3.976329     8.762772     5.697646
H    -4.099701     7.833721     5.433986
H    -2.264144     10.633933    -3.151222
O    -2.954826     10.481823    -3.806118
H    -2.526031     9.917216    -4.477798
H     9.414195    -4.026373     4.025026
O     9.136993    -4.703945     4.649336
H     8.707903    -4.231234     5.373479
H    -0.744199    -6.000897    -5.839022
O    -0.038897    -6.565087    -5.505467
H     0.795185    -6.102244    -5.725784
H     1.799674     8.287275     0.641224
O     1.491096     8.603982    -0.236897
H     2.303636     8.646511    -0.770995
H     3.467650     2.935748    -6.683061
O     4.295927     2.646350    -6.274582
H     4.052515     2.373992    -5.365060
H     3.703019     7.138858    -1.257242
O     3.902067     8.075312    -1.472419
H     4.271693     8.019359    -2.365821
H     4.367966    -0.002806    -7.929129
O     4.745962     0.145582    -7.060451
H     4.562786     1.077651    -6.818457
H     6.012898     1.952611    -0.497952
O     6.575930     2.146568    -1.261163
H     7.402101     1.668983    -1.068706
H     6.687607    -8.411908    -1.614285
O     7.321561    -8.200961    -2.352434
H     7.689397    -9.034842    -2.639947
H    -5.310765    -5.801665    -5.397710
O    -5.930122    -5.131406    -5.711904
H    -5.381145    -4.362576    -5.951579
H     0.666836     7.195632     7.579044
O    -0.234142     7.221984     7.940028
H    -0.791351     7.233662     7.123991
H    -8.911455    -2.853328    -4.090221
O    -9.432929    -2.045344    -3.923219
H    -9.149728    -1.381566    -4.555792
H    -2.413118    -5.989632    -2.138667
O    -3.292407    -5.705642    -2.406042
H    -3.480391    -6.082292    -3.290855
H    -2.995927    -5.907690    -5.403579
O    -3.593411    -6.517966    -4.928927
H    -3.109396    -7.337008    -4.762268
H    -1.419178     3.734542    -7.002373
O    -0.892662     2.980216    -6.717419
H    -1.119892     2.192528    -7.269977
H    -0.233066     0.416615    -8.225690
O    -1.126596     0.655247    -7.937030
H    -1.301008     0.127094    -7.141929
H    -10.451546     4.030994    -2.730540
O    -10.515466     3.254461    -2.159020
H    -9.684274     3.231070    -1.653463
H     4.562122     4.100777     1.696628
O     4.355135     3.180141     1.976526
H     5.071770     2.604807     1.695758
H     6.461708     1.413442    -4.243246
O     6.161393     0.789986    -3.547281
H     6.193156     1.287026    -2.704565
H     9.623449    -2.198556    -0.952655
O     9.897938    -1.984671    -1.853196
H     9.095969    -1.648813    -2.295861
H     9.958422    -3.296062    -3.120774
O     9.691391    -3.949872    -3.793964
H     9.295356    -3.444417    -4.514474
H    -7.694743    -8.587177    -1.647363
O    -6.958605    -7.991127    -1.777551
H    -7.338523    -7.079098    -1.768640
H     4.127554     6.093191    -3.849994
O     4.786657     6.795394    -3.758697
H     5.624802     6.342704    -3.629563
H     0.094060    -8.170902    -5.211835
O     0.120278    -9.153512    -5.078322
H     0.270044    -9.518440    -5.950527
H    -2.330540    -8.675703    -2.706757
O    -2.099219    -8.412604    -3.617125
H    -1.451890    -9.030047    -3.976409
H     2.189018    -10.809539    -3.491651
O     2.140499    -9.855090    -3.468322
H     1.353713    -9.586920    -3.993819
H     6.806792     3.346487    -4.602541
O     6.864574     2.666391    -5.301440
H     6.070305     2.797238    -5.841633
H    -3.554996    -3.709592     7.724564
O    -3.671869    -2.922935     7.193361
H    -3.421851    -3.163127     6.274995
H    -0.655350    -3.366714    -6.727343
O    -0.026508    -2.634112    -6.736569
H    -0.509298    -1.858872    -6.396105
H     0.643218     0.484999     8.741938
O     0.651162    -0.230313     8.101984
H    -0.270420    -0.522014     8.016936
H    -6.019202     7.308821    -4.302042
O    -6.502790     6.647421    -4.828188
H    -6.768785     5.937975    -4.186262
H    -4.223882     9.147160    -3.441769
O    -4.615304     8.250093    -3.455438
H    -4.388837     7.882881    -2.584393
H    -9.753770     5.771895    -4.649934
O    -10.281739     4.966435    -4.475355
H    -11.163582     5.159051    -4.796134
H     2.751426     6.540295     6.115617
O     1.791097     6.635037     6.213574
H     1.449872     5.720288     6.115029
H     4.771328     8.566988     0.051701
O     5.087743     8.569057     0.972993
H     5.500095     7.707292     1.103761
H     4.139018    -7.415857    -4.347552
O     3.380439    -7.703225    -4.887777
H     3.103042    -8.544332    -4.509846
H     0.352469     8.676161     4.211398
O     1.029460     8.031534     3.981516
H     1.260404     7.541226     4.796714
H     5.207239     4.206148    -3.184050
O     6.168776     4.178753    -3.131946
H     6.380237     3.598385    -2.384073
H    -2.573478    -1.529830     7.571473
O    -2.064961    -0.734615     7.788690
H    -2.691564    -0.109765     8.163809
H    -9.110975     7.954099    -4.210061
O    -9.042806     7.337553    -4.940223
H    -8.085659     7.171504    -5.071508
H     3.540038    -8.962278     1.089203
O     2.862420    -8.331758     1.338675
H     3.335718    -7.524898     1.616314
H     3.556444     8.190614     1.799345
O     2.765259     7.627782     1.913650
H     2.322157     7.862474     2.741755
N    -2.270621     8.130269    -5.290597
H    -3.101309     7.902857    -4.836463
H    -1.610043     7.874239    -4.630667
