39

H     1.701673    -4.666604    -0.221305
O     1.801727    -5.328643     0.506411
H     1.285394    -6.104058     0.225750
H     2.369209    -6.402973    -4.073706
O     2.021997    -6.114089    -3.212886
H     2.462802    -6.707383    -2.561689
H    -2.317186    -7.940772     0.648061
O    -1.904646    -7.450772     1.386469
H    -2.635370    -7.017625     1.843884
H    -0.015510    -7.151052    -1.166976
O     0.367380    -7.605326    -0.363296
H    -0.329058    -7.500607     0.300098
H     2.624914    -8.108251    -0.688298
O     3.041332    -8.012219    -1.560197
H     2.701256    -8.745613    -2.116676
H    -0.988388    -7.119833    -3.161679
O    -0.499810    -6.467903    -2.615910
H     0.387318    -6.369855    -3.050232
H    -2.483869    -9.702302    -0.769051
O    -2.658387    -8.778298    -0.978294
H    -3.610265    -8.614276    -0.722377
H    -0.151528    -8.061206     2.677408
O     0.698392    -7.790082     3.040612
H     1.382970    -8.122474     2.434500
H     0.130982    -8.143732    -5.376383
O     0.175988    -9.119923    -5.217889
H     0.420703    -9.493145    -6.069328
H    -2.380554    -8.723325    -2.850372
O    -2.063673    -8.387436    -3.709525
H    -1.527783    -9.058312    -4.150010
H     1.249975    -10.228101    -2.479959
O     1.886112    -9.918192    -3.151248
H     1.317620    -9.610356    -3.885599
H     3.722035    -8.925221     1.230009
O     2.987979    -8.310349     1.329139
H     3.423326    -7.475730     1.628147
N     0.072676    -10.250360    -0.986558
H     0.463052    -10.772344    -0.279619
H     0.203050    -9.306553    -0.717946
