30

H     3.485014     2.665140     0.375372
O     3.287940     2.688288    -0.577517
H     3.538888     1.806095    -0.916920
H     4.231468     5.663670     0.301758
O     4.555050     5.777498     1.214385
H     3.838134     6.304166     1.621037
H     6.517046     1.051253     4.834739
O     6.108535     1.571190     5.543404
H     6.251549     2.496317     5.248999
H     7.535012    -0.655147     3.095484
O     6.861487     0.014444     3.274378
H     6.143874    -0.547584     3.678236
H     5.759421     0.036351     0.350825
O     5.543382     0.750142     0.983201
H     6.020706     0.505404     1.802035
H     9.440483     0.122522    -1.050475
O     8.663241     0.328838    -0.518048
H     8.467462    -0.514769    -0.070331
H     5.323781     3.706754     3.640955
O     6.042083     3.985743     4.253523
H     5.636904     4.707104     4.768724
H     6.063553     2.044997    -0.523526
O     6.636156     2.141414    -1.294398
H     7.423533     1.618609    -1.071657
H     4.465311     4.180106     1.771420
O     4.418235     3.230489     2.040184
H     5.276592     2.881168     1.754998
N     7.271465     3.314303     1.667399
H     7.277174     3.740653     2.536425
H     7.863948     2.561148     1.746262
