27

H    -0.835776     0.551048     6.015026
O    -0.559990     0.038966     5.231721
H     0.154221    -0.578205     5.499021
H    -4.012972     1.216040     6.927760
O    -3.810678     1.661901     7.791318
H    -4.687708     2.044645     8.070544
H    -0.484556     2.101414     7.685202
O    -1.143434     1.955828     6.975617
H    -2.002350     2.017581     7.409699
H    -2.512044     3.040809     10.571599
O    -2.312114     2.110155     10.353865
H    -2.904442     1.907588     9.616859
H    -0.051539     3.509354     9.012409
O     0.326973     2.638724     9.247694
H    -0.375206     2.233903     9.777528
H    -3.856521    -3.790134     7.585434
O    -3.695500    -2.959288     7.132680
H    -3.429047    -3.209654     6.215159
H     0.978657    -0.305812     9.011737
O     0.789540    -0.190090     8.076079
H    -0.147457    -0.424611     8.017853
H    -2.613435    -1.661585     7.801345
O    -2.131104    -0.866106     8.098801
H    -2.804807    -0.175736     8.157673
N    -0.795957    -0.478523     10.646983
H    -1.263340     0.301513     10.970029
H    -1.367918    -0.790224     9.925870
