36

H    -0.848671     6.298566     4.930398
O    -1.461050     6.897814     5.433710
H    -1.382679     7.758208     4.958890
H    -1.738006     4.389667     7.583322
O    -0.883575     4.554545     8.046547
H    -0.665402     5.500163     7.949261
H    -3.873438     4.610548     7.558712
O    -3.292542     4.095067     6.962616
H    -3.503787     3.174038     7.210279
H    -1.755731     9.002925     3.363341
O    -1.400530     9.347482     4.212126
H    -2.194640     9.475367     4.772287
H    -3.936793     5.092725     5.257094
O    -4.020213     6.037466     5.070891
H    -3.097433     6.361920     5.193487
H    -5.740697     3.676156     5.300451
O    -6.444323     4.063358     5.863266
H    -6.205844     4.994943     5.918766
H    -2.136309     5.336826     10.569468
O    -2.840892     4.696900     10.807195
H    -2.968569     4.783613     11.754646
H    -4.288060     4.971444     9.708039
O    -4.888128     5.164747     8.960751
H    -5.505087     4.414917     8.920353
H    -0.853577     7.495395     10.803382
O    -1.233297     6.878470     10.173700
H    -0.734366     7.022476     9.329635
H    -3.504963     8.699165     6.633499
O    -3.679562     9.159497     5.791036
H    -4.227617     8.530886     5.307090
H     0.665555     7.108484     7.370722
O    -0.232956     7.178057     7.751355
H    -0.803533     7.187515     6.932378
N    -3.442679     7.684530     8.237004
H    -4.106914     6.998715     8.390372
H    -2.811241     7.592157     8.964067
