603

H     0.205495     3.029597    -0.665615
O     0.728535     2.361219    -1.158682
H     1.667242     2.490010    -0.885136
H    -0.073280    -1.313625     3.157926
O     0.320547    -0.612410     2.616279
H    -0.158492     0.200581     2.848568
H    -2.393560     2.409460    -0.523947
O    -2.183193     1.937181     0.299225
H    -2.200276     0.989765     0.072228
H    -4.659424     0.542754     2.189806
O    -4.975698    -0.390926     2.202680
H    -4.472239    -0.867466     1.534448
H     0.068495    -0.312175     0.960572
O    -0.128997    -0.074450     0.034133
H     0.210038     0.822442    -0.085678
H    -0.152803    -3.584903     3.781584
O    -0.430708    -2.755433     4.204235
H     0.215767    -2.587901     4.906028
H    -4.882456     2.527425     1.340985
O    -4.243022     2.116764     1.955256
H    -3.400490     2.099850     1.442080
H    -3.243149     3.899162    -2.198405
O    -2.505814     3.301546    -1.967904
H    -2.147175     3.014974    -2.827942
H    -0.121521    -3.808075     0.507838
O     0.218416    -2.991301     0.927281
H    -0.569226    -2.504968     1.238524
H    -2.375574    -1.543865     2.475386
O    -2.185088    -2.008690     1.634348
H    -2.443732    -1.421188     0.905130
H     2.077162    -1.444992    -1.112989
O     2.308306    -1.698744    -0.195556
H     1.518914    -2.127178     0.186973
H    -1.388341     1.818725     1.922290
O    -1.478264     1.420701     2.798496
H    -1.465657     2.133259     3.462952
H     0.212661    -2.704023    -1.564352
O    -0.542942    -2.092289    -1.618001
H    -0.363500    -1.366524    -0.983527
H    -3.433610    -2.926882    -0.387358
O    -2.715652    -3.418676    -0.807289
H    -2.005715    -2.787734    -1.025406
H     2.775071     0.120004     2.943666
O     2.873644    -0.062406     3.905867
H     2.964904     0.830525     4.309346
H    -3.524267     6.379284    -0.526609
O    -3.285122     7.042494    -1.225890
H    -3.143684     7.887148    -0.754565
H     3.905307     0.578385     1.197159
O     2.954967     0.395858     1.314189
H     2.717328    -0.354625     0.732247
H    -5.776871     0.843566    -1.596633
O    -4.866368     1.170267    -1.468974
H    -4.977568     1.998295    -0.956753
H    -1.207889     5.392869     2.225129
O    -1.831725     4.644770     2.107509
H    -1.911745     4.226679     2.969876
H     3.497634     2.758469     0.439323
O     3.250127     2.717250    -0.499816
H     3.582606     1.875293    -0.851994
H     1.494905    -4.697088    -2.247196
O     1.559637    -3.920701    -1.672854
H     2.354331    -3.459248    -2.023451
H    -0.917476    -0.084056    -2.539836
O    -0.282613     0.568362    -2.862652
H    -0.022646     1.149988    -2.125046
H     1.702361    -4.688647    -0.175805
O     1.808647    -5.326465     0.566342
H     1.345374    -6.137275     0.268916
H    -1.222706    -3.264403    -2.875670
O    -1.048793    -3.947012    -3.537074
H    -0.922932    -4.794598    -3.069158
H    -2.779164     3.302071     4.714514
O    -1.797305     3.298785     4.682729
H    -1.507843     2.894412     5.517440
H     0.967655     5.024765     4.090625
O     0.022100     5.257662     4.145242
H    -0.452862     4.455083     4.398159
H    -1.727244    -4.652579    -0.369153
O    -0.962263    -5.193551    -0.084083
H    -1.310401    -5.881681     0.492322
H    -3.912445     5.834029    -2.582493
O    -4.262826     5.000217    -2.913458
H    -4.107978     4.966929    -3.881731
H    -2.428189    -3.694155     1.939148
O    -2.446833    -4.598376     2.314890
H    -1.507171    -4.837307     2.454463
H    -4.691650    -2.977536    -2.895185
O    -3.839080    -3.209988    -3.301308
H    -3.508564    -4.004426    -2.837159
H     0.340075     1.367984     4.625062
O     0.849455     2.126206     4.292916
H     0.902222     2.787311     4.998016
H    -4.652056    -5.169769    -1.570248
O    -5.353797    -4.816777    -0.996128
H    -5.141132    -5.172603    -0.112484
H     2.330039    -6.479769    -4.038458
O     1.992954    -6.151999    -3.184540
H     2.427004    -6.726933    -2.522034
H     0.470903    -3.376612    -4.001039
O     1.273828    -3.009121    -4.423289
H     0.954651    -2.636540    -5.271495
H     1.965685    -1.760104     2.987878
O     2.121138    -2.690971     2.770941
H     1.435931    -2.904116     2.102907
H    -3.010980    -1.806731    -3.204089
O    -2.588664    -0.920425    -3.137466
H    -3.243888    -0.274230    -3.456726
H    -3.186299     4.972551     1.094257
O    -3.968073     5.346317     0.640402
H    -4.382957     5.903743     1.347409
H     0.879335     2.246886     2.602752
O     0.980603     2.243621     1.631744
H     1.707412     1.620536     1.466632
H     0.194952     5.655538    -0.741778
O     0.717248     6.317694    -1.249468
H     0.858998     7.117075    -0.692914
H     0.346683     7.030458     2.609487
O    -0.014924     6.649960     1.791745
H     0.649789     5.980619     1.529412
H    -2.477914     0.208961     3.348876
O    -2.700495    -0.605573     3.852802
H    -1.939581    -0.647819     4.473390
H    -0.899422     0.536463     6.031048
O    -0.616997     0.021603     5.256973
H     0.096482    -0.581171     5.544236
H     0.711725    -4.999923     1.982601
O     0.169924    -5.109988     2.787390
H     0.313744    -6.031323     3.057733
H    -2.116876    -8.091178     0.445812
O    -1.794665    -7.604033     1.231668
H    -2.581183    -7.293573     1.687867
H    -0.374323     6.864535    -2.307539
O    -1.120658     7.285026    -2.806251
H    -1.910709     7.158363    -2.242741
H    -1.109394     4.306861     0.587952
O    -0.736031     4.368391    -0.307895
H    -1.442761     4.127990    -0.940807
H    -4.406487     2.741253     3.518198
O    -4.403259     2.909768     4.483166
H    -4.489028     2.026435     4.890932
H     2.025718    -3.591729     4.248521
O     1.961106    -4.063594     5.101996
H     2.470691    -3.529095     5.732205
H     4.690589    -3.199668     0.844709
O     4.530122    -3.122641    -0.121524
H     3.671299    -2.645175    -0.204648
H    -2.719323    -0.748417    -1.344632
O    -3.046653    -0.479538    -0.469765
H    -3.847137     0.046610    -0.676238
H    -1.612589    -0.756791    -4.623922
O    -1.105246    -0.540065    -5.427337
H    -0.395514     0.056104    -5.141245
H     1.798738    -1.713485    -3.370157
O     1.890991    -0.967730    -2.745694
H     1.113795    -0.390205    -2.876336
H     3.665139    -3.129651     2.556010
O     4.624298    -3.358074     2.483770
H     4.679053    -4.318597     2.608225
H     3.427742    -6.129291     3.124515
O     3.783662    -5.926586     2.224960
H     3.046103    -5.581024     1.682007
H    -3.339332     1.614981    -4.167418
O    -4.184187     1.143958    -3.977416
H    -4.402056     1.288629    -3.020729
H    -5.078566     4.146151     0.080113
O    -5.517154     3.280146    -0.024143
H    -6.447488     3.399883    -0.306209
H     6.737304    -1.184845    -1.354449
O     5.965296    -1.035883    -0.802051
H     5.546028    -1.903861    -0.606259
H     4.596982    -3.169980    -2.465120
O     3.729075    -2.997934    -2.880710
H     3.732390    -3.615551    -3.637864
H     4.437088    -2.304408     5.628377
O     4.093276    -2.769274     6.421765
H     4.427806    -3.674557     6.339399
H    -0.751700     6.330340     5.091258
O    -1.348283     6.902302     5.631342
H    -1.360271     7.781116     5.194385
H     4.702060    -0.138845    -1.457066
O     3.934590     0.404075    -1.718493
H     3.242261    -0.195746    -2.050337
H    -0.737631     4.526611    -4.022588
O    -1.520314     5.069854    -4.229906
H    -1.368908     5.936061    -3.806339
H     0.663854     3.204398    -2.645026
O     0.671634     3.582261    -3.552944
H     0.718638     2.819629    -4.139540
H    -5.382128    -5.197284     1.795038
O    -4.685395    -5.791766     1.439457
H    -3.844906    -5.376326     1.710654
H     7.884670    -1.690460    -4.025975
O     7.626658    -1.378257    -3.125939
H     7.140219    -0.534011    -3.281667
H     3.703721    -5.069320    -5.287535
O     4.466171    -4.696778    -4.805742
H     4.850468    -5.408764    -4.261103
H    -3.783094     0.009895     4.942116
O    -4.381869     0.473034     5.577311
H    -5.043835    -0.184496     5.866781
H     3.466020    -5.945831    -0.518396
O     4.339108    -5.698445    -0.834992
H     4.415391    -4.736269    -0.690656
H     5.004140    -0.334860    -4.151518
O     4.468595    -1.045577    -4.542233
H     4.142362    -1.629825    -3.825233
H    -1.168428     1.574717    -3.926252
O    -1.818677     2.196134    -4.310804
H    -1.461182     2.528763    -5.156804
H     4.886844    -6.323601    -2.313844
O     5.219614    -6.647415    -3.179890
H     6.037468    -7.128871    -2.993879
H     8.742381    -5.093825    -2.914859
O     8.050949    -5.512020    -2.356994
H     8.085296    -6.469225    -2.460426
H     2.342296     4.716268     0.466656
O     1.764267     4.696546     1.238767
H     1.405477     3.776741     1.313919
H    -4.414100    -2.641470     4.235706
O    -5.307856    -2.301041     4.034358
H    -5.170982    -1.519622     3.459146
H    -5.844439    -3.198474     1.321077
O    -6.307089    -3.756389     1.988821
H    -6.119207    -3.321877     2.839872
H     1.770775     3.458085     6.811336
O     1.173055     3.984028     6.253465
H     0.351192     4.123647     6.776820
H     5.002830    -2.178843     3.623172
O     5.022599    -1.461308     4.288432
H     4.211517    -0.904669     4.130826
H     2.390417    -5.586960     4.840494
O     2.770755    -6.470057     4.579707
H     2.026044    -7.051579     4.404119
H     2.259431    -4.511223    -6.787175
O     2.090243    -5.000403    -5.972030
H     1.825581    -4.309917    -5.315898
H     6.441669    -4.107587    -0.499354
O     7.194607    -4.511196    -0.036115
H     7.702061    -4.933294    -0.757228
H    -1.756674     4.449925     7.548971
O    -0.835630     4.538054     7.899078
H    -0.672876     5.499396     8.032945
H    -5.113947     5.699496    -5.580862
O    -4.506346     4.935965    -5.601956
H    -3.749195     5.150909    -6.167857
H     3.284287    -2.520885    -8.431158
O     3.196402    -3.054185    -7.630279
H     4.073081    -3.030830    -7.201537
H    -0.654783     8.827525    -2.258759
O    -0.531631     9.655316    -1.738989
H     0.230401     9.480238    -1.162202
H     2.068280    -0.923445     5.216261
O     1.496357    -1.447700     5.806583
H     1.597018    -1.104827     6.702861
H     5.208449    -2.021695    -5.686475
O     5.554564    -2.787452    -6.209214
H     5.280416    -3.577957    -5.692699
H     5.695961    -5.224846     4.689530
O     5.173012    -5.139749     5.515899
H     4.452431    -5.772761     5.429927
H    -3.974106     1.134195     7.017267
O    -3.778284     1.606253     7.862662
H    -4.653285     1.995946     8.124606
H    -1.846494     9.613910    -0.725388
O    -2.706975     9.486602    -0.251403
H    -3.318046     10.116048    -0.637846
H    -5.944443     4.692347    -2.924693
O    -6.853137     4.573682    -3.268913
H    -6.762857     3.872196    -3.946917
H     0.095517    -7.066089    -1.143272
O     0.559598    -7.502540    -0.395738
H    -0.119874    -7.698546     0.252454
H    -7.633988     3.793319    -1.960762
O    -7.895115     3.205423    -1.221317
H    -7.752636     2.297169    -1.562223
H     3.973174    -0.898904     6.995504
O     3.982535     0.065634     6.988834
H     4.795164     0.352543     6.555247
H     2.262336     5.794586    -1.163539
O     3.197658     5.500940    -1.049198
H     3.374327     4.962366    -1.843464
H     6.551657    -5.935379     0.674226
O     6.182926    -6.672036     1.207408
H     5.278254    -6.395259     1.433902
H    -3.865126     4.718913     7.798522
O    -3.309292     4.254005     7.129947
H    -3.502217     3.311180     7.243190
H     5.762991    -7.950553     0.137749
O     5.474954    -8.636890    -0.500432
H     4.645926    -8.310788    -0.894479
H    -0.658524     1.923279     7.674007
O    -1.294089     1.889635     6.944045
H    -2.157599     1.713941     7.341267
H    -6.381311    -0.123134     1.070866
O    -6.700637    -0.206171     0.157734
H    -7.619654    -0.476154     0.174635
H    -5.370415    -3.064232    -0.583472
O    -5.118020    -2.362803     0.043160
H    -5.688015    -1.589663    -0.143688
H     4.321567     5.573608     0.336169
O     4.654616     5.672251     1.241930
H     3.960639     6.183701     1.693879
H    -9.042053    -1.741947    -2.247115
O    -8.494011    -1.541708    -1.460839
H    -8.621723    -2.279058    -0.824092
H    -5.521090     3.476833    -5.515017
O    -6.038478     2.765674    -5.101165
H    -5.372056     2.179615    -4.688167
H     3.182847    -0.885372    -5.647356
O     2.326844    -1.004767    -6.113123
H     2.412306    -1.853166    -6.587694
H     8.116848    -1.347781    -6.021300
O     8.124727    -2.212182    -5.565587
H     7.268584    -2.611778    -5.816926
H     7.623562     0.993175    -6.299680
O     7.434442     0.145229    -6.713560
H     6.453096     0.095611    -6.750150
H    -7.859587    -3.694157     0.934056
O    -8.537754    -3.586055     0.249691
H    -8.439924    -4.344851    -0.352864
H    -2.403667     8.733956     1.311780
O    -2.253243     8.143809     2.063585
H    -1.482651     7.591708     1.840453
H    -4.440558     6.431123     3.513047
O    -4.610630     6.856829     2.656296
H    -3.847787     7.443809     2.517865
H     3.404094     3.447135    -3.564322
O     3.251009     4.416256    -3.469395
H     2.286203     4.481384    -3.577430
H    -6.113944    -1.602202    -3.435456
O    -6.196800    -2.182207    -2.651999
H    -6.980966    -1.875553    -2.143254
H     6.468836     1.038994     4.751683
O     6.074070     1.577865     5.454401
H     6.264064     2.496439     5.163283
H     1.364370     1.726009    -5.811711
O     1.169885     1.129388    -5.057974
H     1.532970     0.266498    -5.328923
H    -2.517646     2.871738     10.611164
O    -2.286263     1.965389     10.313065
H    -2.885225     1.805688     9.568659
H     7.629324    -0.505038     3.092329
O     6.879100     0.069818     3.263250
H     6.187209    -0.532038     3.640354
H    -5.659345    -8.054318    -0.701579
O    -4.924341    -8.123771    -0.055359
H    -4.928166    -7.307173     0.467633
H    -5.175440    -0.114098    -4.706713
O    -5.792621    -0.825541    -4.947152
H    -6.630701    -0.383493    -5.144809
H     1.892127    -0.192928    -7.506318
O     1.690724     0.279981    -8.349634
H     2.267195    -0.124736    -9.003243
H     4.874145    -1.386615    -9.296594
O     3.949009    -1.157305    -9.578484
H     3.928871    -1.273888    -10.527691
H     7.564992    -2.580946     4.206619
O     7.711077    -2.615124     3.247009
H     7.218541    -3.406132     2.974058
H     6.720767    -5.902518     2.687693
O     6.782532    -5.228248     3.389829
H     7.658604    -5.314065     3.807219
H    -1.817468     8.942266     3.516471
O    -1.568411     9.246239     4.414421
H    -2.416539     9.378108     4.871411
H    -7.387774     1.573622    -5.240133
O    -7.962613     0.829336    -4.995584
H    -8.864343     1.229045    -4.919378
H     6.928179    -1.078081    -8.396412
O     6.345974    -1.798660    -8.660788
H     6.118122    -2.249484    -7.829371
H    -1.673085     6.247564    -7.006548
O    -2.070775     5.421899    -6.733890
H    -1.822617     5.290203    -5.770352
H    -0.178974     3.329031     8.891476
O     0.165659     2.492997     9.296689
H    -0.630056     2.182402     9.798774
H     6.757486    -2.781285    -2.698874
O     6.226975    -3.525755    -2.358347
H     6.695263    -4.336401    -2.605945
H    -4.076420    -3.068335    -4.938044
O    -4.230289    -2.954592    -5.902732
H    -4.777686    -2.161577    -5.958178
H     1.972543     1.962133     8.298412
O     2.763568     2.227839     7.812220
H     3.217337     1.378801     7.615688
H    -6.907412    -5.199985    -1.392445
O    -7.822991    -5.469092    -1.638202
H    -7.956583    -5.065610    -2.520756
H    -3.826348     5.250770     5.711076
O    -3.790835     6.018160     5.119479
H    -2.857014     6.313628     5.217006
H    -7.883183     0.090492    -1.957380
O    -7.392929     0.814293    -2.369975
H    -7.621369     0.804604    -3.323251
H     5.839449     0.125698     0.421351
O     5.617218     0.846150     1.043493
H     6.128042     0.650416     1.855778
H    -6.210207     3.303237     7.411790
O    -6.080388     2.781262     8.237795
H    -6.683900     2.022604     8.149282
H     2.277575    -8.075965    -0.842133
O     2.954764    -8.062608    -1.538150
H     2.729897    -8.775962    -2.152161
H    -2.743817    -3.956090    -6.192398
O    -1.990289    -4.522733    -5.961193
H    -1.713969    -4.232195    -5.063745
H    -5.640980     3.756444     5.322690
O    -6.289435     4.150980     5.941426
H    -6.127038     5.095262     5.929060
H    -1.018582    -7.112857    -3.161361
O    -0.545858    -6.443788    -2.632422
H     0.361516    -6.374192    -3.013554
H     4.448908     2.007302     5.139336
O     3.506607     2.247024     5.022178
H     3.122065     2.261048     5.902987
H     4.117579     4.642984     6.310981
O     4.195210     5.377440     5.698138
H     3.626670     5.139948     4.926559
H     2.768489     3.611262     3.933776
O     2.592856     4.551799     3.770216
H     2.471396     4.652259     2.804044
H     9.395427     0.207392    -1.061242
O     8.589566     0.369794    -0.567232
H     8.413570    -0.449853    -0.075539
H    -2.054694     5.215259     10.781423
O    -2.839816     4.617918     10.938390
H    -3.150380     4.847059     11.819080
H     7.974095    -3.014567     0.333818
O     8.395164    -2.168173     0.590059
H     8.329660    -2.164538     1.552357
H     5.374879     3.657795     3.536928
O     6.029395     3.919973     4.206409
H     5.619218     4.641876     4.704434
H    -4.190586     5.015014     9.803718
O    -4.825603     5.163597     9.081494
H    -5.439807     4.417157     9.083877
H    -7.010026    -3.474021    -3.479863
O    -7.630664    -4.085357    -3.928718
H    -7.109842    -4.526811    -4.631467
H     0.121880     5.699186     10.746605
O    -0.706639     6.216567     10.706129
H    -0.638328     6.712397     9.874645
H     2.591559     1.497277    -4.094465
O     3.470064     1.849447    -3.855219
H     3.790153     1.333616    -3.085278
H    -6.972281    -0.225619     7.228362
O    -7.479479     0.553366     7.509519
H    -8.103146     0.738035     6.806186
H    -2.743920    -9.873620    -0.830724
O    -2.680347    -8.931779    -0.989276
H    -3.586281    -8.565352    -0.748550
H    -10.066042     3.082797    -4.885426
O    -10.183196     2.165068    -4.605568
H    -10.399035     2.248297    -3.655771
H    -2.067088    -3.030560     4.620016
O    -2.942076    -3.470205     4.690014
H    -2.936667    -4.087074     3.932790
H    -0.178877    -7.987033     2.486966
O     0.647561    -7.776800     2.934892
H     1.365710    -8.072771     2.347912
H     6.706531    -2.386881     6.400425
O     7.155785    -3.095849     5.935615
H     6.526122    -3.830905     5.896251
H    -5.271208    -2.010407     6.951427
O    -5.946717    -1.511190     6.467763
H    -5.931506    -1.887593     5.558276
H     0.838936     3.038166    -7.101949
O     1.756408     2.706931    -7.158262
H     1.742334     1.960202    -7.785037
H    -3.946540     8.752076     6.690731
O    -3.948407     8.749537     5.733282
H    -4.073770     7.821946     5.466300
H    -2.054785     10.316279    -2.717019
O    -2.956442     10.497935    -3.018738
H    -2.884888     11.132990    -3.730668
H     9.411506    -4.070907     4.049534
O     9.130852    -4.749251     4.671449
H     8.702368    -4.277184     5.396330
H    -0.734891    -5.992815    -5.837287
O    -0.031635    -6.559743    -5.504020
H     0.804034    -6.098524    -5.721653
H     1.829935     8.272594     0.682750
O     1.526718     8.594905    -0.194561
H     2.341309     8.633715    -0.725091
H     3.500995     2.933766    -6.650007
O     4.328554     2.642923    -6.241064
H     4.083320     2.368451    -5.332457
H     3.737278     7.123338    -1.213270
O     3.943465     8.059150    -1.425641
H     4.312389     8.004038    -2.319141
H     4.396788    -0.002566    -7.902468
O     4.773873     0.142791    -7.032887
H     4.592532     1.074598    -6.788577
H     6.033031     1.929712    -0.464249
O     6.598456     2.123491    -1.225686
H     7.422891     1.643274    -1.032461
H     6.683468    -8.434036    -1.606058
O     7.319320    -8.222644    -2.342424
H     7.686165    -9.056565    -2.631089
H    -5.301625    -5.782600    -5.403741
O    -5.918595    -5.109995    -5.717581
H    -5.367227    -4.341832    -5.953922
H     0.644237     7.163267     7.636491
O    -0.273749     7.179177     7.969846
H    -0.788043     7.201334     7.123459
H    -8.896974    -2.827834    -4.095174
O    -9.416898    -2.019223    -3.926605
H    -9.130990    -1.353913    -4.556353
H    -2.410166    -5.986955    -2.140119
O    -3.288207    -5.699873    -2.408218
H    -3.475771    -6.073614    -3.294340
H    -2.986984    -5.894879    -5.405837
O    -3.586875    -6.504811    -4.933808
H    -3.105337    -7.325551    -4.768377
H    -1.387750     3.733117    -6.969395
O    -0.847827     2.976798    -6.699298
H    -1.085143     2.192377    -7.250056
H    -0.202608     0.424507    -8.206130
O    -1.098464     0.659870    -7.922253
H    -1.273856     0.135396    -7.124971
H    -10.420211     4.058349    -2.719893
O    -10.487640     3.278982    -2.152710
H    -9.658388     3.252068    -1.643743
H     4.582746     4.075805     1.734010
O     4.376349     3.154599     2.013957
H     5.090697     2.578880     1.728440
H     6.487673     1.398603    -4.209158
O     6.184508     0.773971    -3.515600
H     6.215695     1.268789    -2.671496
H     9.634085    -2.230207    -0.922702
O     9.910666    -2.014639    -1.822190
H     9.110319    -1.675553    -2.265342
H     9.970088    -3.322904    -3.093047
O     9.702461    -3.974259    -3.768376
H     9.309124    -3.465893    -4.488307
H    -7.699566    -8.571709    -1.665089
O    -6.961591    -7.977308    -1.792403
H    -7.339148    -7.064263    -1.781799
H     4.164020     6.082228    -3.805641
O     4.825267     6.783166    -3.719529
H     5.661483     6.328920    -3.583176
H     0.096740    -8.166739    -5.214255
O     0.120314    -9.149732    -5.083142
H     0.270487    -9.512918    -5.956003
H    -2.333885    -8.671558    -2.714948
O    -2.099906    -8.406652    -3.624119
H    -1.453780    -9.025103    -3.983813
H     2.181924    -10.815192    -3.496998
O     2.135909    -9.860673    -3.471510
H     1.350656    -9.589196    -3.997620
H     6.838321     3.331604    -4.562341
O     6.896066     2.653742    -5.263527
H     6.102774     2.787772    -5.804290
H    -3.565269    -3.730212     7.726706
O    -3.673564    -2.940226     7.198622
H    -3.426134    -3.179761     6.279288
H    -0.637568    -3.356566    -6.718409
O    -0.006945    -2.625451    -6.724912
H    -0.488466    -1.850049    -6.382836
H     0.629852     0.445195     8.781507
O     0.643219    -0.242284     8.114265
H    -0.273017    -0.553666     8.031446
H    -5.830550     7.373624    -4.234190
O    -6.333545     6.755293    -4.795751
H    -6.620923     6.024120    -4.205122
H    -4.274790     9.107335    -3.244308
O    -4.810339     8.310960    -3.138968
H    -4.402215     7.830940    -2.400263
H    -9.708712     5.804170    -4.629690
O    -10.242164     4.999374    -4.466996
H    -11.122827     5.200896    -4.785253
H     2.833047     6.621166     6.111218
O     1.868265     6.664893     6.225833
H     1.597761     5.725670     6.099759
H     4.807663     8.545087     0.101837
O     5.125022     8.544482     1.022782
H     5.532456     7.680266     1.152277
H     4.142165    -7.424440    -4.340955
O     3.383748    -7.708340    -4.883221
H     3.103484    -8.549747    -4.508076
H     0.380559     8.655396     4.250959
O     1.057596     8.010146     4.022201
H     1.284839     7.519190     4.837763
H     5.237965     4.191841    -3.144529
O     6.199409     4.161467    -3.091822
H     6.408290     3.579288    -2.344608
H    -2.572026    -1.553272     7.581882
O    -2.062802    -0.760006     7.805696
H    -2.693016    -0.135092     8.175444
H    -9.024325     7.943597    -4.128133
O    -8.961341     7.359389    -4.885225
H    -8.004322     7.195546    -5.020880
H     3.529031    -8.983751     1.090660
O     2.852900    -8.351820     1.340607
H     3.328083    -7.547018     1.620798
H     3.588086     8.168496     1.847188
O     2.798411     7.603868     1.959632
H     2.350859     7.840443     2.784928
N     1.599787     4.536421     10.708898
H     1.294464     3.688205     10.339268
H     2.409239     4.742155     10.231441
