603

H     0.202372     3.022852    -0.685978
O     0.722624     2.353548    -1.180583
H     1.662250     2.479787    -0.908898
H    -0.075713    -1.313932     3.144964
O     0.316754    -0.614528     2.599806
H    -0.158687     0.199974     2.834028
H    -2.398224     2.408817    -0.537158
O    -2.186488     1.937913     0.286323
H    -2.205889     0.990011     0.061555
H    -4.660432     0.551536     2.186505
O    -4.979907    -0.380979     2.200489
H    -4.477955    -0.860079     1.532946
H     0.061200    -0.316424     0.945345
O    -0.137815    -0.079089     0.018943
H     0.203392     0.816679    -0.102295
H    -0.158564    -3.583819     3.772632
O    -0.434154    -2.752801     4.193625
H     0.214060    -2.584188     4.893947
H    -4.881165     2.535508     1.334829
O    -4.241162     2.124627     1.948129
H    -3.399791     2.104583     1.433202
H    -3.248719     3.898227    -2.211149
O    -2.511847     3.299708    -1.981929
H    -2.156383     3.010604    -2.842420
H    -0.137554    -3.812200     0.498185
O     0.205236    -2.995111     0.914689
H    -0.580251    -2.507014     1.228485
H    -2.380200    -1.539778     2.469151
O    -2.194406    -2.006365     1.627900
H    -2.452869    -1.418804     0.898794
H     2.061650    -1.456965    -1.132335
O     2.295099    -1.709532    -0.215279
H     1.506010    -2.135706     0.170554
H    -1.386215     1.820724     1.908308
O    -1.476685     1.423474     2.784650
H    -1.458819     2.135775     3.449551
H     0.193211    -2.712145    -1.576589
O    -0.560631    -2.098069    -1.629557
H    -0.377907    -1.372484    -0.995821
H    -3.449687    -2.924298    -0.388952
O    -2.734722    -3.418250    -0.811360
H    -2.023345    -2.789616    -1.031407
H     2.774969     0.114215     2.920463
O     2.876500    -0.068243     3.881877
H     2.970651     0.824432     4.286193
H    -3.519166     6.381442    -0.542290
O    -3.280735     7.043432    -1.243094
H    -3.135791     7.888164    -0.773138
H     3.901388     0.566006     1.169672
O     2.950721     0.386980     1.287912
H     2.709947    -0.365178     0.709491
H    -5.787772     0.849478    -1.597473
O    -4.876222     1.174615    -1.473611
H    -4.983872     2.003353    -0.961866
H    -1.197634     5.392892     2.205779
O    -1.824611     4.647255     2.090586
H    -1.901541     4.228811     2.953296
H     3.496471     2.746078     0.409797
O     3.246959     2.704120    -0.528979
H     3.575710     1.860191    -0.879863
H     1.469900    -4.709558    -2.260028
O     1.537014    -3.931639    -1.687807
H     2.332046    -3.472912    -2.040874
H    -0.932846    -0.091077    -2.552760
O    -0.298104     0.560067    -2.878482
H    -0.034452     1.141617    -2.142133
H     1.682048    -4.698211    -0.189309
O     1.788370    -5.334725     0.553761
H     1.323327    -6.145370     0.258566
H    -1.246538    -3.271257    -2.882974
O    -1.076387    -3.954785    -3.544372
H    -0.950454    -4.802276    -3.075989
H    -2.765674     3.308833     4.704059
O    -1.784499     3.303969     4.667723
H    -1.490692     2.901298     5.503201
H     0.979703     5.024961     4.066243
O     0.034380     5.259649     4.120636
H    -0.439069     4.457693     4.379692
H    -1.748044    -4.654232    -0.373313
O    -0.983439    -5.196342    -0.089748
H    -1.331036    -5.882810     0.488955
H    -3.914146     5.834231    -2.596266
O    -4.267875     5.001017    -2.925072
H    -4.115437     4.965598    -3.893624
H    -2.440001    -3.690753     1.935838
O    -2.459929    -4.594674     2.312141
H    -1.520362    -4.835374     2.450075
H    -4.714854    -2.976112    -2.893510
O    -3.864164    -3.210913    -3.302096
H    -3.533797    -4.005380    -2.837705
H     0.349235     1.368962     4.607050
O     0.856420     2.127792     4.272052
H     0.908386     2.786692     4.978732
H    -4.676832    -5.166174    -1.565639
O    -5.376462    -4.810878    -0.990277
H    -5.161975    -5.165678    -0.106593
H     2.296181    -6.497286    -4.050067
O     1.960417    -6.166225    -3.196550
H     2.395030    -6.741418    -2.534177
H     0.443858    -3.388795    -4.012759
O     1.245855    -3.022606    -4.437960
H     0.924747    -2.651873    -5.286119
H     1.961622    -1.765408     2.970480
O     2.114359    -2.696593     2.752873
H     1.426270    -2.908998     2.087735
H    -3.032280    -1.809712    -3.208876
O    -2.607876    -0.924127    -3.145211
H    -3.262730    -0.277095    -3.463197
H    -3.180239     4.976251     1.080104
O    -3.962025     5.351807     0.627504
H    -4.374093     5.910640     1.334699
H     0.882980     2.243897     2.581790
O     0.981754     2.239165     1.610339
H     1.706472     1.613801     1.444458
H     0.197622     5.648545    -0.766446
O     0.719807     6.309094    -1.276550
H     0.864956     7.108610    -0.721217
H     0.362344     7.027838     2.582237
O    -0.002724     6.648355     1.765713
H     0.658742     5.975828     1.502810
H    -2.476320     0.214412     3.340391
O    -2.698925    -0.598919     3.846056
H    -1.936813    -0.640418     4.465694
H    -0.882644     0.549148     6.020735
O    -0.611761     0.029290     5.245505
H     0.100810    -0.576214     5.530377
H     0.696908    -5.003898     1.972292
O     0.156351    -5.111598     2.778266
H     0.299415    -6.032637     3.050017
H    -2.143256    -8.090493     0.447753
O    -1.818053    -7.603033     1.232119
H    -2.602528    -7.289920     1.689965
H    -0.373117     6.856846    -2.332174
O    -1.119760     7.278714    -2.829452
H    -1.908619     7.154281    -2.263791
H    -1.106276     4.304902     0.569239
O    -0.735521     4.365140    -0.327814
H    -1.444312     4.124608    -0.958341
H    -4.398855     2.751379     3.510914
O    -4.394484     2.921911     4.475477
H    -4.478988     2.039081     4.884860
H     2.020537    -3.594975     4.232792
O     1.957419    -4.066483     5.086452
H     2.467691    -3.531212     5.715590
H     4.676702    -3.214487     0.821231
O     4.514805    -3.136604    -0.144919
H     3.655984    -2.658905    -0.226211
H    -2.733096    -0.749276    -1.351726
O    -3.057522    -0.478060    -0.476554
H    -3.857353     0.049463    -0.681505
H    -1.635655    -0.765142    -4.634180
O    -1.130247    -0.550115    -5.439350
H    -0.418093     0.044214    -5.155615
H     1.776706    -1.727948    -3.387916
O     1.873032    -0.980568    -2.765869
H     1.096234    -0.402207    -2.894496
H     3.656522    -3.139422     2.534861
O     4.614834    -3.370526     2.459469
H     4.667026    -4.331142     2.585307
H     3.413420    -6.137845     3.108416
O     3.767398    -5.936142     2.207951
H     3.028833    -5.590921     1.666301
H    -3.355500     1.611526    -4.176365
O    -4.201303     1.143377    -3.983642
H    -4.415895     1.289325    -3.026346
H    -5.077105     4.153120     0.071882
O    -5.518085     3.288153    -0.030103
H    -6.448924     3.409561    -0.309507
H     6.721514    -1.209764    -1.386698
O     5.952017    -1.056606    -0.832399
H     5.529987    -1.923047    -0.633261
H     4.573270    -3.189931    -2.488450
O     3.705593    -3.014997    -2.903364
H     3.705591    -3.635685    -3.658320
H     4.438427    -2.312520     5.603544
O     4.096841    -2.776776     6.397927
H     4.428625    -3.682938     6.315097
H    -0.730173     6.332750     5.069373
O    -1.323919     6.910262     5.608936
H    -1.336351     7.787239     5.167289
H     4.688666    -0.157654    -1.484877
O     3.922784     0.387273    -1.746701
H     3.227337    -0.211407    -2.074319
H    -0.746649     4.517105    -4.042841
O    -1.528343     5.062229    -4.249202
H    -1.373745     5.928508    -3.827058
H     0.655552     3.193983    -2.667134
O     0.661875     3.570590    -3.575765
H     0.705132     2.806797    -4.161152
H    -5.397802    -5.186944     1.801822
O    -4.703652    -5.783475     1.444772
H    -3.861243    -5.369910     1.713230
H     7.857872    -1.715789    -4.062603
O     7.610748    -1.401710    -3.160921
H     7.121750    -0.557880    -3.313685
H     3.670756    -5.091503    -5.305436
O     4.434008    -4.717595    -4.826526
H     4.820013    -5.430475    -4.282385
H    -3.777060     0.021150     4.937545
O    -4.374837     0.486892     5.571802
H    -5.036048    -0.169455     5.865324
H     3.442243    -5.960593    -0.534569
O     4.315280    -5.714659    -0.852147
H     4.393036    -4.752578    -0.710601
H     4.982361    -0.358093    -4.179692
O     4.445442    -1.068428    -4.568760
H     4.118864    -1.651484    -3.850370
H    -1.184328     1.566425    -3.940729
O    -1.833860     2.189040    -4.324797
H    -1.477675     2.519256    -5.172206
H     4.858792    -6.345069    -2.335830
O     5.185930    -6.665478    -3.204494
H     6.004912    -7.148778    -3.024344
H     8.700219    -5.130319    -2.893097
O     8.000664    -5.534942    -2.360082
H     8.060207    -6.499434    -2.404727
H     2.345907     4.705589     0.437720
O     1.768867     4.689419     1.210543
H     1.409133     3.770065     1.289462
H    -4.416988    -2.629990     4.236339
O    -5.310624    -2.288028     4.036403
H    -5.173221    -1.507492     3.460215
H    -5.856733    -3.187882     1.326183
O    -6.319426    -3.743380     1.995877
H    -6.127393    -3.308382     2.845843
H     1.707560     3.457672     6.850596
O     1.084639     3.974852     6.318290
H     0.303489     4.129974     6.891854
H     4.998859    -2.190028     3.596498
O     5.023507    -1.471001     4.259839
H     4.212327    -0.913119     4.105615
H     2.382354    -5.590383     4.826465
O     2.759774    -6.475075     4.566277
H     2.013138    -7.054815     4.393065
H     2.221158    -4.531736    -6.802670
O     2.052799    -5.019054    -5.986428
H     1.792796    -4.327468    -5.329963
H     6.420760    -4.130147    -0.523723
O     7.176986    -4.529918    -0.062993
H     7.678613    -4.959007    -0.784907
H    -1.699310     4.488180     7.697768
O    -0.799175     4.584250     8.080757
H    -0.615857     5.542954     8.104402
H    -5.124278     5.698177    -5.591224
O    -4.518583     4.933211    -5.612875
H    -3.762357     5.145509    -6.180995
H     3.247751    -2.545732    -8.451955
O     3.160535    -3.077069    -7.649777
H     4.038265    -3.057358    -7.223746
H    -0.649132     8.820438    -2.285553
O    -0.522455     9.648900    -1.767530
H     0.240746     9.472640    -1.192584
H     2.071790    -0.924709     5.199451
O     1.499141    -1.448792     5.788568
H     1.596399    -1.103629     6.685454
H     5.180563    -2.048671    -5.711814
O     5.527409    -2.815190    -6.232928
H     5.248627    -3.605300    -5.716835
H     5.688243    -5.236842     4.664812
O     5.168652    -5.150161     5.493127
H     4.445332    -5.780405     5.409693
H    -3.958888     1.150429     7.010266
O    -3.763341     1.626104     7.853421
H    -4.637795     2.013923     8.116450
H    -1.834359     9.611866    -0.750196
O    -2.693758     9.487860    -0.273274
H    -3.304521     10.117502    -0.659922
H    -5.950021     4.696755    -2.931157
O    -6.859847     4.580016    -3.273058
H    -6.772953     3.877027    -3.950012
H     0.067093    -7.073100    -1.148731
O     0.531682    -7.509260    -0.401502
H    -0.146476    -7.702901     0.248689
H    -7.638920     3.803014    -1.961587
O    -7.899809     3.217058    -1.220566
H    -7.759998     2.307828    -1.560100
H     3.983334    -0.909307     6.969241
O     3.994607     0.054851     6.960067
H     4.806456     0.342391     6.526090
H     2.264038     5.782281    -1.193845
O     3.199325     5.487471    -1.082426
H     3.372086     4.946430    -1.875829
H     6.531596    -5.955218     0.649029
O     6.163749    -6.687749     1.187778
H     5.258907    -6.410419     1.412482
H    -3.842053     4.733678     7.782862
O    -3.278245     4.269309     7.122562
H    -3.473807     3.326395     7.233723
H     5.732213    -7.972784     0.121832
O     5.434303    -8.664872    -0.504416
H     4.614097    -8.329765    -0.908414
H    -0.538177     2.037515     7.687404
O    -1.173573     1.974671     6.954075
H    -2.041319     1.835126     7.352977
H    -6.386427    -0.112027     1.072401
O    -6.709470    -0.194632     0.160413
H    -7.628728    -0.463462     0.181027
H    -5.387524    -3.057741    -0.579993
O    -5.132103    -2.355790     0.044820
H    -5.700620    -1.581612    -0.141770
H     4.326315     5.558954     0.300271
O     4.663403     5.659137     1.204359
H     3.971388     6.170986     1.658693
H    -9.060756    -1.729386    -2.235594
O    -8.510360    -1.528955    -1.451068
H    -8.637614    -2.265218    -0.812892
H    -5.536489     3.476363    -5.520856
O    -6.054568     2.767283    -5.104393
H    -5.388414     2.180150    -4.692246
H     3.156739    -0.906688    -5.669784
O     2.299772    -1.023404    -6.134395
H     2.380842    -1.873488    -6.606742
H     8.087135    -1.382212    -6.057935
O     8.097024    -2.246310    -5.600837
H     7.237978    -2.645300    -5.846997
H     7.600016     0.960128    -6.337203
O     7.409260     0.110353    -6.746667
H     6.427426     0.063551    -6.783209
H    -7.874094    -3.679114     0.945078
O    -8.554112    -3.570726     0.262517
H    -8.459334    -4.330596    -0.339202
H    -2.387721     8.736129     1.289992
O    -2.236252     8.147545     2.042857
H    -1.468200     7.592325     1.818054
H    -4.424292     6.440952     3.500028
O    -4.595764     6.867109     2.643848
H    -3.831253     7.451066     2.501976
H     3.393749     3.428593    -3.594366
O     3.243421     4.398335    -3.501000
H     2.278340     4.465392    -3.605839
H    -6.135542    -1.598035    -3.432128
O    -6.217820    -2.176667    -2.647651
H    -6.999677    -1.867326    -2.137087
H     6.476813     1.026507     4.714940
O     6.086449     1.566664     5.418823
H     6.275522     2.484785     5.126724
H     1.343982     1.709135    -5.833707
O     1.150462     1.114338    -5.078434
H     1.510331     0.249932    -5.348966
H    -2.460151     2.965828     10.482868
O    -2.250961     2.057590     10.209375
H    -2.851069     1.859178     9.478617
H     7.627521    -0.526236     3.057013
O     6.880008     0.052502     3.226527
H     6.186586    -0.545267     3.608452
H    -5.688585    -8.046956    -0.689928
O    -4.952436    -8.117447    -0.045257
H    -4.952457    -7.299862     0.476222
H    -5.196994    -0.113920    -4.708096
O    -5.816522    -0.824174    -4.946010
H    -6.654112    -0.380506    -5.141926
H     1.862400    -0.213368    -7.526952
O     1.660193     0.259082    -8.370412
H     2.233383    -0.148522    -9.025071
H     4.836722    -1.417188    -9.323891
O     3.911857    -1.184683    -9.603475
H     3.887862    -1.304447    -10.552200
H     7.562331    -2.596909     4.172243
O     7.706885    -2.633802     3.212419
H     7.210600    -3.423787     2.942752
H     6.704939    -5.918600     2.661378
O     6.771843    -5.243242     3.362676
H     7.648238    -5.332755     3.777826
H    -1.794819     8.946334     3.492263
O    -1.543917     9.250776     4.389812
H    -2.391152     9.385466     4.847555
H    -7.406809     1.578151    -5.238012
O    -7.982835     0.835548    -4.991164
H    -8.883345     1.237399    -4.912911
H     6.893344    -1.112308    -8.429462
O     6.309466    -1.832527    -8.690734
H     6.082603    -2.281759    -7.858038
H    -1.685940     6.236216    -7.026750
O    -2.085068     5.411962    -6.751961
H    -1.834480     5.280761    -5.788927
H     0.026909     3.306824     9.015497
O     0.222414     2.386740     9.270626
H    -0.575319     2.124749     9.779149
H     6.734376    -2.807719    -2.730326
O     6.202305    -3.548482    -2.387238
H     6.667680    -4.363200    -2.630796
H    -4.105534    -3.071240    -4.938162
O    -4.262134    -2.958335    -5.902568
H    -4.807794    -2.164105    -5.957349
H     2.001864     2.174191     8.452609
O     2.664170     2.284657     7.760730
H     3.083740     1.413234     7.644537
H    -6.931763    -5.191025    -1.381630
O    -7.848816    -5.458039    -1.624519
H    -7.983668    -5.055667    -2.507353
H    -3.804959     5.261324     5.699043
O    -3.771788     6.029502     5.107920
H    -2.836808     6.321429     5.199380
H    -7.896685     0.100917    -1.951514
O    -7.406340     0.823216    -2.366681
H    -7.637118     0.812221    -3.319312
H     5.831895     0.107023     0.389857
O     5.614705     0.830264     1.010380
H     6.125701     0.633559     1.822514
H    -6.193384     3.323435     7.405329
O    -6.064671     2.805246     8.233875
H    -6.667065     2.045377     8.147447
H     2.247284    -8.088438    -0.852574
O     2.921265    -8.074739    -1.551450
H     2.696410    -8.790128    -2.162976
H    -2.778590    -3.963544    -6.194719
O    -2.025438    -4.531267    -5.965188
H    -1.746078    -4.240806    -5.068595
H    -5.626368     3.771450     5.316706
O    -6.272680     4.170017     5.935549
H    -6.106671     5.113620     5.921237
H    -1.051764    -7.119889    -3.164600
O    -0.576860    -6.450806    -2.637836
H     0.330613    -6.384692    -3.020221
H     4.456875     1.999549     5.110168
O     3.515729     2.241758     4.992394
H     3.133639     2.258947     5.875230
H     4.131792     4.641654     6.282097
O     4.213460     5.371132     5.663324
H     3.642768     5.131988     4.894237
H     2.777961     3.604680     3.907957
O     2.602807     4.545232     3.741952
H     2.480574     4.643559     2.775850
H     9.386412     0.180184    -1.100034
O     8.579528     0.341324    -0.608050
H     8.403319    -0.476872    -0.113558
H    -2.065040     5.324003     10.648219
O    -2.787992     4.697406     10.881868
H    -3.003467     4.875728     11.797513
H     7.958617    -3.038387     0.299195
O     8.386562    -2.193246     0.550977
H     8.320862    -2.185873     1.513382
H     5.383054     3.644970     3.503120
O     6.042210     3.909287     4.166921
H     5.632424     4.628038     4.670085
H    -4.176353     5.031101     9.788193
O    -4.811064     5.183412     9.067891
H    -5.424778     4.436295     9.067351
H    -7.036096    -3.467887    -3.471341
O    -7.659513    -4.078100    -3.917907
H    -7.141430    -4.522022    -4.621179
H     0.065897     6.126704     10.762259
O    -0.798432     6.460510     10.517353
H    -0.683951     6.890178     9.650418
H     2.575368     1.480352    -4.119478
O     3.455685     1.830360    -3.883453
H     3.775759     1.315010    -3.113038
H    -6.960412    -0.203374     7.232507
O    -7.466251     0.576566     7.513881
H    -8.090797     0.761257     6.811324
H    -2.777385    -9.873475    -0.824552
O    -2.712608    -8.931995    -0.984710
H    -3.616860    -8.563299    -0.741932
H    -10.080583     3.094175    -4.878131
O    -10.199427     2.177144    -4.596757
H    -10.412222     2.262080    -3.646437
H    -2.069929    -3.023637     4.614787
O    -2.945925    -3.461183     4.687099
H    -2.943444    -4.079460     3.931100
H    -0.198804    -7.988157     2.482946
O     0.629036    -7.779195     2.928794
H     1.345306    -8.077533     2.340585
H     6.710173    -2.398179     6.368980
O     7.156874    -3.108867     5.904190
H     6.525050    -3.842270     5.867556
H    -5.265454    -1.992563     6.952821
O    -5.941822    -1.492895     6.470603
H    -5.929051    -1.870320     5.561506
H     0.818248     3.020631    -7.124259
O     1.734951     2.687620    -7.183181
H     1.717081     1.939571    -7.808305
H    -3.920387     8.763905     6.673596
O    -3.921015     8.761321     5.716227
H    -4.049465     7.833976     5.449292
H    -2.046584     10.311791    -2.742396
O    -2.948627     10.495693    -3.041636
H    -2.877339     11.128870    -3.755274
H     9.403631    -4.090745     4.014129
O     9.126069    -4.767904     4.638648
H     8.697799    -4.294743     5.362967
H    -0.773202    -6.004124    -5.842814
O    -0.071102    -6.572790    -5.510279
H     0.765724    -6.114632    -5.729827
H     1.842419     8.264080     0.649543
O     1.537622     8.586467    -0.227284
H     2.350840     8.621896    -0.760125
H     3.481191     2.910400    -6.679619
O     4.309223     2.618315    -6.272411
H     4.065412     2.345784    -5.362743
H     3.741843     7.107767    -1.249680
O     3.949915     8.042785    -1.464175
H     4.316034     7.985244    -2.358651
H     4.366939    -0.030173    -7.929247
O     4.749117     0.116682    -7.062092
H     4.568265     1.048685    -6.818021
H     6.027124     1.909892    -0.499319
O     6.591240     2.101481    -1.262506
H     7.414743     1.619791    -1.070266
H     6.624249    -8.498561    -1.546263
O     7.268181    -8.211700    -2.250835
H     7.559872    -9.015260    -2.683278
H    -5.338370    -5.783172    -5.396447
O    -5.954723    -5.109656    -5.709672
H    -5.402133    -4.343120    -5.948467
H     0.715688     7.168880     7.589872
O    -0.184740     7.199155     7.951919
H    -0.742526     7.214774     7.135994
H    -8.923079    -2.818171    -4.082385
O    -9.440956    -2.008158    -3.913997
H    -9.154800    -1.344458    -4.545323
H    -2.438504    -5.989218    -2.140680
O    -3.316718    -5.700559    -2.406745
H    -3.507424    -6.075418    -3.291678
H    -3.023717    -5.901120    -5.404720
O    -3.624232    -6.508708    -4.930570
H    -3.144106    -7.330230    -4.764473
H    -1.406656     3.720834    -6.986919
O    -0.867322     2.963939    -6.717388
H    -1.108149     2.178999    -7.265964
H    -0.232733     0.407693    -8.221833
O    -1.127166     0.645864    -7.935867
H    -1.301710     0.122893    -7.137352
H    -10.426433     4.073687    -2.713350
O    -10.494476     3.295551    -2.144575
H    -9.663629     3.266955    -1.638215
H     4.589030     4.062455     1.699808
O     4.379235     3.142170     1.979409
H     5.092603     2.564163     1.696160
H     6.470733     1.372314    -4.244171
O     6.170050     0.748704    -3.548649
H     6.202270     1.245183    -2.705443
H     9.616042    -2.268154    -0.967416
O     9.887724    -2.062139    -1.871140
H     9.089340    -1.703613    -2.303723
H     9.941945    -3.229047    -3.216100
O     9.669962    -3.881344    -3.893054
H     9.239576    -3.365690    -4.594662
H    -7.732822    -8.561051    -1.647148
O    -6.993872    -7.968623    -1.777885
H    -7.369060    -7.054640    -1.767287
H     4.159009     6.061797    -3.841493
O     4.822355     6.761253    -3.759158
H     5.657673     6.305186    -3.623456
H     0.054848    -8.179879    -5.218178
O     0.074831    -9.162729    -5.086268
H     0.224875    -9.527167    -5.958621
H    -2.369566    -8.675149    -2.711892
O    -2.138804    -8.412213    -3.622392
H    -1.494205    -9.031774    -3.983116
H     2.140804    -10.830319    -3.504305
O     2.093015    -9.876024    -3.476708
H     1.308089    -9.603925    -4.002423
H     6.824489     3.303503    -4.601696
O     6.879418     2.624630    -5.302258
H     6.084573     2.759352    -5.840688
H    -3.559590    -3.715673     7.726353
O    -3.673258    -2.927758     7.196329
H    -3.425228    -3.167871     6.277369
H    -0.671890    -3.370156    -6.727182
O    -0.040246    -2.639884    -6.737368
H    -0.519296    -1.863404    -6.394346
H     0.660243     0.457371     8.744533
O     0.664253    -0.257764     8.104321
H    -0.258926    -0.544447     8.019372
H    -5.833531     7.375782    -4.244752
O    -6.339609     6.758040    -4.804149
H    -6.626754     6.028018    -4.211869
H    -4.270754     9.107411    -3.261731
O    -4.808199     8.312709    -3.153598
H    -4.398981     7.832406    -2.415646
H    -9.716085     5.815081    -4.627784
O    -10.251069     5.011895    -4.462301
H    -11.132044     5.214835    -4.778765
H     2.796141     6.505011     6.123229
O     1.836610     6.604117     6.223812
H     1.490286     5.691615     6.122911
H     4.819396     8.528443     0.060411
O     5.139947     8.529105     0.980250
H     5.544281     7.663515     1.110664
H     4.105787    -7.444802    -4.359403
O     3.341789    -7.726643    -4.895584
H     3.065001    -8.568661    -4.519464
H     0.404737     8.654645     4.223000
O     1.080431     8.008435     3.993339
H     1.307723     7.515200     4.807551
H     5.230579     4.170062    -3.180905
O     6.192133     4.136720    -3.131150
H     6.401163     3.555943    -2.382865
H    -2.567500    -1.540389     7.574978
O    -2.054616    -0.748292     7.793233
H    -2.677851    -0.120354     8.168873
H    -9.025435     7.953399    -4.131012
O    -8.965856     7.368378    -4.887750
H    -8.009572     7.201694    -5.025420
H     3.502973    -8.994148     1.073935
O     2.828614    -8.362538     1.330475
H     3.306601    -7.558132     1.606374
H     3.603962     8.157502     1.809533
O     2.812520     7.595885     1.924179
H     2.368970     7.833131     2.751331
N     10.464196    -6.652702    -4.107027
H     10.435592    -5.687866    -4.210212
H     11.399844    -6.856375    -4.031945
