36

H    -0.795450     6.297098     4.950743
O    -1.406611     6.893870     5.457814
H    -1.330165     7.756985     4.987873
H    -1.681540     4.389771     7.609325
O    -0.822145     4.547127     8.065721
H    -0.601273     5.492632     7.974224
H    -3.822494     4.611256     7.586804
O    -3.237998     4.097262     6.993622
H    -3.451812     3.175677     7.237200
H    -1.699857     9.001067     3.388549
O    -1.346319     9.345733     4.238156
H    -2.143048     9.476072     4.793898
H    -3.886551     5.100420     5.296393
O    -3.969604     6.043867     5.103620
H    -3.044971     6.367619     5.215036
H    -5.695574     3.684297     5.328617
O    -6.396079     4.070109     5.896472
H    -6.164633     5.003887     5.943726
H    -2.063923     5.328727     10.584056
O    -2.772202     4.692733     10.821606
H    -2.908092     4.790573     11.766835
H    -4.226020     4.969917     9.734278
O    -4.837783     5.171261     8.998618
H    -5.452357     4.419642     8.956705
H    -0.723488     7.451772     10.848097
O    -1.151310     6.873756     10.212281
H    -0.666627     7.016788     9.360101
H    -3.448035     8.700562     6.656962
O    -3.627413     9.169250     5.820306
H    -4.178408     8.545374     5.333499
H     0.728034     7.097784     7.387232
O    -0.166608     7.170388     7.776111
H    -0.744027     7.181137     6.962602
N    -3.335252     7.631963     8.222311
H    -2.752115     7.598328     8.992546
H    -4.019472     6.969631     8.390290
