30

H    -3.508264     6.390124    -0.512623
O    -3.315179     7.048537    -1.235635
H    -3.120477     7.908456    -0.793239
H     0.246848     5.664572    -0.731526
O     0.745225     6.342049    -1.251020
H     0.931357     7.102660    -0.654534
H    -0.366842     6.952733    -2.304606
O    -1.125005     7.373907    -2.788485
H    -1.887961     7.173131    -2.187373
H    -0.595396     4.550680    -4.060630
O    -1.376408     5.090007    -4.298954
H    -1.265726     5.928957    -3.814564
H    -0.417463     8.968092    -1.981283
O    -0.241947     9.797360    -1.498326
H     0.494948     9.550169    -0.905413
H    -1.733981     9.702028    -0.652526
O    -2.644510     9.507280    -0.324150
H    -3.223501     10.111064    -0.815433
H    -1.670180     6.130341    -7.237047
O    -2.059738     5.374776    -6.796750
H    -1.691276     5.347432    -5.864952
H    -3.184288     10.397435    -3.176550
O    -3.954704     10.620942    -2.596241
H    -4.191764     11.525837    -2.815197
H    -5.120920     9.086883    -2.789829
O    -5.510421     8.204644    -2.711371
H    -4.910859     7.727758    -2.114402
N    -1.746179     9.942302    -4.060886
H    -1.045243     10.423563    -3.604087
H    -1.548392     9.016703    -3.832610
