27

H     7.657224     0.967878    -6.247898
O     7.430897     0.233370    -6.835695
H     6.446243     0.121860    -6.715453
H     1.917628    -0.169953    -7.476190
O     1.674978     0.325304    -8.298388
H     2.350332     0.073340    -8.942194
H     5.009208    -1.019351    -9.436385
O     4.316823    -0.330899    -9.554886
H     4.839436     0.486865    -9.652829
H     7.081257    -1.453791    -8.535204
O     6.341227    -2.048939    -8.703289
H     6.097716    -2.354912    -7.807085
H     0.744617     3.046895    -7.027771
O     1.680512     2.753314    -7.121550
H     1.662911     1.973904    -7.725605
H     3.401629     2.957298    -6.550237
O     4.254744     2.633642    -6.198680
H     4.019574     2.363465    -5.279726
H     4.537587    -0.092333    -7.761944
O     4.787283     0.049141    -6.829832
H     4.489535     0.961495    -6.629068
H     6.792117     3.385132    -4.463425
O     6.857777     2.747961    -5.211359
H     6.027957     2.899755    -5.696507
N     6.148183     1.845786    -9.099284
H     5.711400     2.528661    -8.578619
H     6.712633     1.390402    -8.449338
