21

H     7.816977    -1.685529    -4.155158
O     7.614785    -1.351308    -3.248640
H     7.083538    -0.521629    -3.386651
H     9.441598     0.631760    -0.717934
O     8.526060     0.609394    -0.378851
H     8.399125    -0.282084    -0.022010
H     7.935833    -3.078478     0.316118
O     8.386742    -2.235390     0.547247
H     8.348004    -2.243990     1.515783
H     5.864393     1.946869    -0.649565
O     6.516715     2.140237    -1.335391
H     7.315444     1.657093    -1.034251
H     9.606662    -2.255824    -1.010310
O     9.878558    -2.063688    -1.925272
H     9.072833    -1.656605    -2.321488
H     9.901325    -3.442163    -3.250318
O     9.699800    -4.087242    -3.954265
H     9.209314    -3.582950    -4.618013
N     11.091461     0.369862    -1.489900
H     10.847903    -0.546724    -1.745462
H     11.223067     0.831998    -2.323046
