27

H     0.228257     6.767459     2.715395
O    -0.023788     6.569586     1.802089
H     0.627104     5.891037     1.516476
H     4.288396     5.480488     0.257913
O     4.708230     5.612370     1.129497
H     4.005748     6.067296     1.628900
H     4.157751     4.658064     6.238377
O     4.217002     5.401151     5.625529
H     3.620083     5.134198     4.884140
H     1.815284     8.289259     0.616688
O     1.531882     8.598379    -0.269089
H     2.346388     8.571082    -0.801531
H     2.712130     6.525603     6.223422
O     1.744041     6.591917     6.258997
H     1.458540     5.653914     6.180864
H     4.787058     8.543405     0.027554
O     5.140041     8.573166     0.939947
H     5.551828     7.700970     1.031276
H     0.239805     8.724595     4.305621
O     1.015248     8.171351     4.118893
H     1.178413     7.613772     4.914590
H     3.629654     8.095650     1.810164
O     2.810047     7.567191     1.927757
H     2.413467     7.816840     2.775781
N     3.523868     9.666802     4.410742
H     3.766487     10.013628     3.546603
H     2.599479     9.387058     4.317681
