39
Coordinates from ORCA-job grain_mol_opt.QMRegion
  H   1.70167326527050     -4.66660354428929     -0.22130479616000
  O   1.80172691808911     -5.32864315242638      0.50641118120843
  H   1.28539442243991     -6.10405846272640      0.22575036497936
  H   2.36920943677690     -6.40297338695254     -4.07370599808917
  O   2.02199683917876     -6.11408909859013     -3.21288589410280
  H   2.46280207521846     -6.70738293284359     -2.56168934079852
  H   -2.31718580743546     -7.94077213390488      0.64806104576975
  O   -1.90464639875826     -7.45077169986498      1.38646906211560
  H   -2.63537013378862     -7.01762525437415      1.84388352663933
  H   -0.01550992379616     -7.15105184561197     -1.16697643662663
  O   0.36738031145755     -7.60532615774316     -0.36329620930369
  H   -0.32905753016278     -7.50060662470406      0.30009781148489
  H   2.62491426148868     -8.10825097096498     -0.68829777428906
  O   3.04133179779016     -8.01221895035128     -1.56019748774630
  H   2.70125643920439     -8.74561320922944     -2.11667643503042
  H   -0.98838834537763     -7.11983275404541     -3.16167857570583
  O   -0.49981001652955     -6.46790293896431     -2.61591005049591
  H   0.38731826185826     -6.36985461332599     -3.05023151759696
  H   -2.48386873585387     -9.70230182276917     -0.76905066569996
  O   -2.65838665787238     -8.77829778652363     -0.97829425779635
  H   -3.61026455053076     -8.61427614169828     -0.72237734981229
  H   -0.15152846407464     -8.06120589769597      2.67740770376534
  O   0.69839171237462     -7.79008157446739      3.04061166010197
  H   1.38296974884826     -8.12247401189306      2.43449985792502
  H   0.13098182510900     -8.14373211308554     -5.37638253502357
  O   0.17598825566042     -9.11992341163173     -5.21788871487791
  H   0.42070339208021     -9.49314544142226     -6.06932830605117
  H   -2.38055405132534     -8.72332489501517     -2.85037199061408
  O   -2.06367314426790     -8.38743595080173     -3.70952540120403
  H   -1.52778277517431     -9.05831237102664     -4.15000977827283
  H   1.24997544378501    -10.22810120817412     -2.47995915987473
  O   1.88611173980183     -9.91819237112246     -3.15124788817319
  H   1.31762049991057     -9.61035569000010     -3.88559897942352
  H   3.72203461663154     -8.92522081272396      1.23000946799470
  O   2.98797859403793     -8.31034893836586      1.32913893591735
  H   3.42332550658380     -7.47572973640033      1.62814684255725
  O   0.07267604175896    -10.25035992576028     -0.98655755589100
  H   0.46305233457031    -10.77234379172760     -0.27961861388195
  H   0.20305036844847     -9.30655277922596     -0.71794598967993
