21
Coordinates from ORCA-job grain_mol_opt.QMRegion
  H   5.76122613192808     -5.28969162502665      4.58551981213618
  O   5.18899798546046     -5.14979803657407      5.37073468103212
  H   4.45633865531785     -5.77282583026658      5.28079055597483
  H   6.49949489729573     -5.88894135645457      0.58851161768847
  O   6.16781196003729     -6.61708994524801      1.16119895904044
  H   5.25894889216650     -6.34116461569960      1.39111143255901
  H   7.32275181922123     -2.51727341855354      4.11702593765810
  O   7.78387866175427     -2.67007332679557      3.27022943416288
  H   7.47213726710461     -3.56835192331108      3.03328617661890
  H   6.83182392948887     -5.89559573025324      2.58845920018139
  O   7.04123121247071     -5.32395445232650      3.35953500123282
  H   7.88004897302557     -5.67925507611873      3.74053311995866
  H   6.46583611205092     -2.24200957899666      6.40089958971427
  O   7.06175885610257     -2.87368894289395      5.98269192362998
  H   6.56111042927530     -3.70437815836815      6.00451195680315
  H   9.28323862542765     -3.06219376435769      4.19603679729890
  O   9.91795495253235     -3.37690681426424      4.88025709060032
  H   9.44712871647568     -3.17618660812101      5.69840326441749
  O   9.41940250179701     -6.01002256060206      4.47222082561902
  H   9.71542945450209     -5.08264660753635      4.66309815240140
  H   10.07911744791013     -6.36122870761759      3.86750425443037
