33
Coordinates from ORCA-job grain_mol_opt.QMRegion
  H   3.22867476664967     -0.93290519845055     -5.66276745288702
  O   2.35144012711934     -1.05438977524412     -6.09645536268722
  H   2.41690961502570     -1.91373602047908     -6.55926249696995
  H   7.90268686463642      0.88800953888686     -6.27598168580677
  O   7.61747940243555      0.11785046452353     -6.78131581342844
  H   6.63121386673708      0.14643166061459     -6.73071673555777
  H   1.29859584992493      1.65414948016961     -5.83896422926962
  O   1.14373257309530      1.10431694005026     -5.05252654031306
  H   1.51031866107247      0.22951209419296     -5.29215585737134
  H   1.89999314135403     -0.23487380151519     -7.51393304503985
  O   1.54522934134183      0.24215301717322     -8.30517184280666
  H   2.00821252391315     -0.15498835891213     -9.04886948271398
  H   4.97802659055926     -1.18471940740951     -9.34137500244682
  O   4.08705177229528     -0.76391805450299     -9.38973746387387
  H   4.23146298761931      0.15013753474546     -9.68365013583136
  H   7.09601132200371     -1.32516450518559     -8.43655456833161
  O   6.43022847593296     -1.98574079982916     -8.67177091511065
  H   6.16357466486067     -2.34497907143429     -7.80403267700744
  H   0.74560936621604      3.05177823168615     -7.19290639321660
  O   1.67615495816766      2.77209685622396     -7.35320807910333
  H   1.61135546190470      1.92786474067257     -7.85517570555989
  H   3.32885464152622      2.95495297724657     -6.56303512143473
  O   4.19778706565400      2.68720017417662     -6.20832256978823
  H   3.99117451467759      2.38068595226684     -5.29533675777982
  H   4.53449135716958     -0.14191004091526     -7.68856010441888
  O   4.93730105706678      0.15793724637984     -6.85373329529719
  H   4.57942187782303      1.05545546533415     -6.69111216208602
  H   6.78714820289481      3.35899493368940     -4.46804842963578
  O   6.88148611894993      2.71817000471299     -5.21002071057790
  H   6.08152750407349      2.87512060146767     -5.73452986511945
  O   4.19566812785815      2.15302413797461     -9.49923472523149
  H   4.72735516448557      2.38668314064724     -8.72944027250962
  H   3.35838393070364      2.60463029789940     -9.34094708411783
