39

H    -3.004048    -1.832782    -3.170326
O    -2.563206    -0.950496    -3.134370
H    -3.241133    -0.300244    -3.407924
H    -1.549939    -0.808971    -4.650481
O    -0.992446    -0.550523    -5.413258
H    -0.265814    -0.032393    -5.036177
H    -3.325381     1.597627    -4.129534
O    -4.190273     1.152006    -3.923103
H    -4.379772     1.308598    -2.960669
H    -1.118059     1.596856    -3.894817
O    -1.798693     2.197783    -4.258457
H    -1.474785     2.543906    -5.116767
H    -5.134579     5.808711    -5.534186
O    -4.522728     5.045041    -5.614205
H    -3.756605     5.332770    -6.139301
H    -5.504637     3.531467    -5.586576
O    -6.016925     2.819250    -5.154278
H    -5.337787     2.301163    -4.670313
H    -5.201626    -0.095218    -4.692554
O    -5.798948    -0.813800    -4.977212
H    -6.661621    -0.378794    -5.110614
H    -7.405228     1.683108    -5.237168
O    -7.965982     0.912988    -5.014448
H    -8.877298     1.292316    -4.910027
H    -1.634355     6.308982    -6.945963
O    -2.014042     5.464843    -6.685614
H    -1.769483     5.358569    -5.714841
H    -4.078682    -3.102513    -4.912627
O    -4.200726    -2.993220    -5.885318
H    -4.735832    -2.188346    -5.945096
H    -1.228644     3.807656    -7.001135
O    -0.769965     3.015472    -6.675699
H    -0.988126     2.242640    -7.250803
H    -0.111115     0.436883    -8.234694
O    -1.005424     0.638293    -7.906464
H    -1.076967     0.144890    -7.062747
N    -3.710626     1.491742    -7.082417
H    -3.122964     1.085905    -7.731318
H    -4.599014     1.308285    -7.400106
