39

H    -3.797529    -0.008917     4.846970
O    -4.393509     0.439381     5.503346
H    -5.084470    -0.210461     5.709507
H    -4.066014     1.229154     6.949815
O    -3.936461     1.887383     7.677450
H    -4.839278     2.203682     7.924429
H    -3.913513     4.906573     7.770156
O    -3.340806     4.468213     7.099840
H    -3.572062     3.519418     7.144614
H    -0.627749     2.063102     7.638407
O    -1.242487     1.949033     6.894313
H    -2.084441     1.703053     7.289613
H    -2.743351     3.005505     10.425299
O    -2.565378     2.094746     10.123544
H    -3.034787     2.027513     9.266529
H    -0.184218     3.367970     8.975607
O     0.091013     2.467046     9.257644
H    -0.696069     2.167086     9.749805
H    -6.491321     3.365722     7.314050
O    -6.302596     2.963240     8.199307
H    -6.858581     2.177431     8.284650
H    -6.524245    -0.489364     7.770815
O    -6.619877     0.036373     8.590149
H    -7.299521    -0.430356     9.085505
H    -5.233146    -2.144342     6.783305
O    -6.002190    -1.643246     6.441985
H    -6.070466    -1.961738     5.516167
H    -3.581924    -3.793409     7.592525
O    -3.607462    -2.997051     7.054640
H    -3.394800    -3.298093     6.141028
H     0.763144     0.400960     8.522146
O     0.719519    -0.511764     8.221228
H    -0.239483    -0.695260     8.167833
H    -2.424867    -1.566936     7.537465
O    -2.056669    -0.772821     7.952842
H    -2.647580    -0.653999     8.721982
N    -3.932836    -0.461227     10.058857
H    -4.762493    -0.241059     9.606787
H    -3.628520     0.384285     10.427298
