30

H    -3.510339     6.395811    -0.476662
O    -3.317299     7.057232    -1.196931
H    -3.122962     7.915394    -0.750968
H     0.245198     5.672349    -0.697085
O     0.743528     6.352124    -1.213617
H     0.929224     7.110324    -0.613926
H    -0.368438     6.966812    -2.265001
O    -1.126501     7.389719    -2.747520
H    -1.889700     7.186412    -2.147582
H    -0.595412     4.571812    -4.030983
O    -1.376523     5.111845    -4.267375
H    -1.266360     5.948804    -3.779442
H    -0.419206     8.980920    -1.933155
O    -0.244326     9.808182    -1.446586
H     0.492296     9.558717    -0.854283
H    -1.736856     9.708678    -0.602182
O    -2.647527     9.512224    -0.275209
H    -3.226436     10.117901    -0.764256
H    -1.669579     6.164088    -7.201290
O    -2.059023     5.406579    -6.764243
H    -1.690907     5.375571    -5.832423
H    -3.186287     10.413893    -3.124002
O    -3.957005     10.634876    -2.543133
H    -4.194181     11.540596    -2.758523
H    -5.122885     9.101271    -2.743513
O    -5.512270     8.218663    -2.668755
H    -4.912843     7.739467    -2.073498
N    -1.747696     9.962689    -4.009625
H    -1.549560     9.036323    -3.784734
H    -1.047070     10.442582    -3.550930
