603

H     0.204473     3.024586    -0.676772
O     0.728589     2.356727    -1.169177
H     1.667357     2.488440    -0.896557
H    -0.056587    -1.306196     3.162803
O     0.332107    -0.605827     2.616172
H    -0.147153     0.206839     2.848764
H    -2.393355     2.397182    -0.530626
O    -2.181296     1.929121     0.294398
H    -2.193284     0.980782     0.071539
H    -4.650170     0.533803     2.194288
O    -4.965117    -0.400443     2.208717
H    -4.457120    -0.877748     1.544503
H     0.078026    -0.312297     0.960754
O    -0.122428    -0.077314     0.034016
H     0.216325     0.819211    -0.088956
H    -0.129532    -3.575468     3.793948
O    -0.409903    -2.745056     4.213358
H     0.236846    -2.572032     4.913959
H    -4.879518     2.514839     1.337744
O    -4.238825     2.107673     1.952778
H    -3.396270     2.091303     1.439495
H    -3.249211     3.878860    -2.208865
O    -2.510073     3.284091    -1.977279
H    -2.151267     2.995636    -2.836612
H    -0.101892    -3.810730     0.521160
O     0.236240    -2.990085     0.935712
H    -0.551900    -2.505833     1.248065
H    -2.358701    -1.545103     2.484023
O    -2.171448    -2.012807     1.643728
H    -2.429162    -1.426639     0.913331
H     2.087718    -1.446352    -1.111143
O     2.320794    -1.695713    -0.193191
H     1.533607    -2.125874     0.192125
H    -1.380997     1.819592     1.917813
O    -1.472461     1.423543     2.794581
H    -1.458066     2.137093     3.458246
H     0.225919    -2.712649    -1.555199
O    -0.531567    -2.103073    -1.610228
H    -0.352949    -1.374873    -0.978214
H    -3.416574    -2.938424    -0.371804
O    -2.702362    -3.431683    -0.795984
H    -1.990623    -2.802289    -1.013541
H     2.787004     0.136876     2.939099
O     2.887310    -0.043094     3.901150
H     2.976869     0.850829     4.303726
H    -3.535188     6.364015    -0.545155
O    -3.299458     7.025700    -1.247071
H    -3.159264     7.872195    -0.778772
H     3.913345     0.591004     1.189421
O     2.963294     0.407327     1.306565
H     2.727624    -0.347310     0.729336
H    -5.773197     0.818725    -1.592783
O    -4.863481     1.148359    -1.467819
H    -4.975843     1.977787    -0.958102
H    -1.212356     5.393220     2.207880
O    -1.835484     4.644140     2.093596
H    -1.910916     4.227041     2.957086
H     3.498287     2.767321     0.424234
O     3.249348     2.721978    -0.514547
H     3.584007     1.879596    -0.863681
H     1.513953    -4.704381    -2.232644
O     1.575786    -3.924103    -1.663233
H     2.369392    -3.462449    -2.015578
H    -0.911529    -0.099140    -2.537836
O    -0.280736     0.555051    -2.864863
H    -0.020254     1.139532    -2.129614
H     1.723358    -4.687434    -0.161428
O     1.833555    -5.321892     0.582432
H     1.371466    -6.135368     0.289142
H    -1.206756    -3.281684    -2.861827
O    -1.035862    -3.965430    -3.522832
H    -0.903046    -4.811796    -3.053833
H    -2.772977     3.306292     4.708646
O    -1.791847     3.306082     4.673520
H    -1.496926     2.906786     5.510229
H     0.964189     5.040614     4.072300
O     0.017500     5.270281     4.125118
H    -0.451778     4.466237     4.385165
H    -1.707072    -4.663341    -0.350463
O    -0.937254    -5.196068    -0.066260
H    -1.276700    -5.886218     0.515187
H    -3.924260     5.810458    -2.598579
O    -4.273323     4.974858    -2.926393
H    -4.118885     4.938329    -3.894586
H    -2.407478    -3.697724     1.954379
O    -2.425894    -4.600447     2.333178
H    -1.485541    -4.839850     2.469818
H    -4.678148    -3.005289    -2.879089
O    -3.826426    -3.238828    -3.286172
H    -3.490833    -4.027390    -2.816509
H     0.352138     1.382098     4.620098
O     0.854818     2.143294     4.283842
H     0.903469     2.803557     4.989497
H    -4.625925    -5.191900    -1.543767
O    -5.333420    -4.846329    -0.972184
H    -5.114356    -5.189632    -0.085773
H     2.351219    -6.491177    -4.018087
O     2.013414    -6.161093    -3.165289
H     2.449173    -6.733090    -2.500997
H     0.483413    -3.392502    -3.990416
O     1.284315    -3.023522    -4.415010
H     0.963273    -2.655115    -5.264197
H     1.983242    -1.747009     2.991561
O     2.140870    -2.677913     2.776396
H     1.455077    -2.895547     2.110557
H    -3.001196    -1.830297    -3.194764
O    -2.582357    -0.942488    -3.131629
H    -3.239641    -0.299206    -3.452348
H    -3.191129     4.963901     1.080512
O    -3.974517     5.334022     0.626132
H    -4.390251     5.892455     1.331546
H     0.884368     2.255877     2.593482
O     0.984030     2.249346     1.622161
H     1.712693     1.627905     1.458524
H     0.185865     5.650259    -0.762468
O     0.704880     6.312530    -1.273436
H     0.845590     7.113866    -0.719522
H     0.338424     7.037014     2.583489
O    -0.023744     6.653758     1.767420
H     0.641835     5.984445     1.506594
H    -2.465445     0.210439     3.351574
O    -2.684939    -0.602985     3.858558
H    -1.923252    -0.639320     4.479236
H    -0.877392     0.558694     6.033422
O    -0.603394     0.038377     5.259621
H     0.112546    -0.562479     5.546355
H     0.734618    -4.994073     1.998620
O     0.193239    -5.102969     2.803693
H     0.339741    -6.023861     3.075146
H    -2.122268    -7.996120     0.517165
O    -1.725833    -7.533879     1.286402
H    -2.454345    -7.194809     1.810016
H    -0.388957     6.852296    -2.331654
O    -1.137194     7.269082    -2.830965
H    -1.926090     7.141768    -2.266090
H    -1.113036     4.302327     0.574034
O    -0.741457     4.362592    -0.322664
H    -1.448017     4.117164    -0.953687
H    -4.401467     2.737689     3.513927
O    -4.399887     2.910202     4.478121
H    -4.479917     2.027838     4.889253
H     2.049575    -3.574092     4.257991
O     1.987272    -4.043629     5.112758
H     2.494662    -3.504762     5.741147
H     4.708956    -3.186300     0.849433
O     4.547533    -3.112391    -0.117104
H     3.686906    -2.638370    -0.200472
H    -2.710281    -0.764378    -1.338605
O    -3.039004    -0.494063    -0.464784
H    -3.839690     0.030979    -0.672701
H    -1.607555    -0.780708    -4.619436
O    -1.102878    -0.564848    -5.424693
H    -0.393938     0.033895    -5.141818
H     1.807498    -1.723291    -3.366830
O     1.898265    -0.974445    -2.745910
H     1.119209    -0.399962    -2.877586
H     3.685800    -3.112695     2.561467
O     4.645386    -3.339089     2.488064
H     4.701959    -4.299191     2.615868
H     3.457678    -6.111328     3.140879
O     3.812552    -5.909234     2.240650
H     3.072572    -5.569711     1.697057
H    -3.340995     1.587049    -4.169846
O    -4.184681     1.114734    -3.977059
H    -4.401191     1.262337    -3.020524
H    -5.081738     4.128611     0.071459
O    -5.518491     3.261283    -0.029643
H    -6.449388     3.377881    -0.310632
H     6.747177    -1.173435    -1.359187
O     5.974966    -1.024187    -0.807224
H     5.558515    -1.892644    -0.606870
H     4.610889    -3.167986    -2.460391
O     3.742389    -2.999564    -2.876282
H     3.746628    -3.620686    -3.630547
H     4.458725    -2.275897     5.629785
O     4.118164    -2.740316     6.424587
H     4.454955    -3.644844     6.344208
H    -0.753997     6.341286     5.070464
O    -1.351715     6.916732     5.607904
H    -1.367889     7.792781     5.164522
H     4.708718    -0.133005    -1.463090
O     3.939558     0.406761    -1.726390
H     3.248425    -0.196624    -2.054088
H    -0.747920     4.507032    -4.038107
O    -1.532337     5.047550    -4.246418
H    -1.382546     5.915577    -3.826064
H     0.659416     3.194039    -2.657627
O     0.664217     3.568713    -3.567040
H     0.713420     2.804052    -4.150814
H    -5.357812    -5.193420     1.828660
O    -4.666315    -5.800805     1.483000
H    -3.818685    -5.387964     1.737990
H     7.892692    -1.684355    -4.030867
O     7.635240    -1.369666    -3.131648
H     7.145752    -0.527625    -3.289394
H     3.720225    -5.080518    -5.274803
O     4.482122    -4.703400    -4.795831
H     4.869280    -5.412085    -4.248712
H    -3.767122     0.013684     4.947219
O    -4.368960     0.477316     5.579311
H    -5.026787    -0.181975     5.873394
H     3.490572    -5.941206    -0.502372
O     4.362181    -5.691752    -0.821667
H     4.435725    -4.729047    -0.680004
H     5.007812    -0.338076    -4.157220
O     4.473667    -1.051363    -4.545123
H     4.150414    -1.634596    -3.825734
H    -1.170414     1.554461    -3.930400
O    -1.823078     2.172300    -4.316939
H    -1.467055     2.503068    -5.164269
H     4.909851    -6.320794    -2.298725
O     5.243646    -6.645250    -3.164191
H     6.062238    -7.125009    -2.977018
H     8.761634    -5.082129    -2.909119
O     8.072065    -5.499926    -2.348898
H     8.108442    -6.457480    -2.448754
H     2.337346     4.720925     0.446690
O     1.758847     4.703248     1.218431
H     1.404204     3.782097     1.298717
H    -4.392404    -2.642929     4.249989
O    -5.287897    -2.307225     4.046623
H    -5.153429    -1.525777     3.470826
H    -5.826042    -3.213139     1.338393
O    -6.286098    -3.770008     2.009684
H    -6.096059    -3.331456     2.858757
H     1.696358     3.482565     6.861022
O     1.071293     3.995220     6.326829
H     0.288682     4.147531     6.899070
H     5.021627    -2.154491     3.623352
O     5.041081    -1.434317     4.285599
H     4.227551    -0.880811     4.128635
H     2.420288    -5.566914     4.855755
O     2.803427    -6.449589     4.597662
H     2.060379    -7.033731     4.423066
H     2.272749    -4.530054    -6.775271
O     2.105563    -5.017293    -5.958598
H     1.840088    -4.326005    -5.303819
H     6.460643    -4.093891    -0.493361
O     7.216052    -4.493007    -0.030327
H     7.723301    -4.916525    -0.750682
H    -1.717181     4.497282     7.701108
O    -0.818283     4.598659     8.085471
H    -0.639728     5.558334     8.107251
H    -5.129315     5.661993    -5.595204
O    -4.519955     4.899897    -5.614478
H    -3.763733     5.115039    -6.181613
H     3.289706    -2.542943    -8.427215
O     3.203847    -3.073787    -7.624520
H     4.080886    -3.047002    -7.196589
H    -0.675227     8.814513    -2.289369
O    -0.553906     9.644548    -1.772631
H     0.209564     9.473545    -1.196412
H     2.085675    -0.901387     5.219090
O     1.514241    -1.426554     5.808457
H     1.609528    -1.079712     6.704886
H     5.215124    -2.029533    -5.686567
O     5.562678    -2.795972    -6.207387
H     5.291653    -3.585566    -5.687612
H     5.724876    -5.195508     4.699033
O     5.203553    -5.110021     5.526256
H     4.483604    -5.744149     5.442865
H    -3.958340     1.146238     7.017218
O    -3.766675     1.624293     7.859831
H    -4.643377     2.008351     8.120762
H    -1.866898     9.602650    -0.757321
O    -2.726466     9.475050    -0.281557
H    -3.339761     10.100944    -0.670270
H    -5.953483     4.661919    -2.934382
O    -6.862356     4.539185    -3.276864
H    -6.770721     3.835633    -3.952552
H     0.118492    -7.074345    -1.117690
O     0.592007    -7.501293    -0.371565
H    -0.081361    -7.707758     0.279312
H    -7.639065     3.761405    -1.965196
O    -7.898330     3.175278    -1.223643
H    -7.752832     2.266364    -1.561366
H     3.994631    -0.872192     6.991809
O     4.000659     0.091998     6.980797
H     4.811570     0.383036     6.547347
H     2.252143     5.793734    -1.187497
O     3.188625     5.504005    -1.073712
H     3.365795     4.962420    -1.865804
H     6.577323    -5.917285     0.686071
O     6.211511    -6.653017     1.222299
H     5.306332    -6.377975     1.449342
H    -3.861351     4.731544     7.782735
O    -3.294442     4.268718     7.124009
H    -3.484855     3.325019     7.237126
H     5.793425    -7.936440     0.156767
O     5.507733    -8.625099    -0.479842
H     4.675678    -8.304413    -0.872224
H    -0.542995     2.052525     7.697401
O    -1.177188     1.984725     6.963431
H    -2.044625     1.841466     7.361592
H    -6.369743    -0.140127     1.077865
O    -6.691352    -0.229240     0.165884
H    -7.610200    -0.499322     0.186641
H    -5.355946    -3.082987    -0.570047
O    -5.106159    -2.382835     0.058328
H    -5.675614    -1.609235    -0.129248
H     4.313731     5.584242     0.310296
O     4.648468     5.688128     1.214822
H     3.953028     6.197374     1.666778
H    -9.031480    -1.779638    -2.229987
O    -8.483481    -1.574773    -1.444895
H    -8.609264    -2.308975    -0.804383
H    -5.530231     3.438207    -5.520767
O    -6.044956     2.726938    -5.103747
H    -5.376030     2.144522    -4.689488
H     3.186309    -0.898823    -5.648563
O     2.330224    -1.021913    -6.113407
H     2.417568    -1.871904    -6.584799
H     8.120989    -1.348074    -6.027912
O     8.132190    -2.210897    -5.569372
H     7.276801    -2.613955    -5.817720
H     7.620767     0.990496    -6.313264
O     7.433692     0.140863    -6.724610
H     6.452457     0.087928    -6.759252
H    -7.838992    -3.713941     0.956635
O    -8.523295    -3.611906     0.277577
H    -8.417958    -4.364838    -0.332050
H    -2.418520     8.728317     1.283772
O    -2.265326     8.141941     2.038012
H    -1.493894     7.590399     1.815653
H    -4.446178     6.427105     3.495549
O    -4.618796     6.850444     2.638195
H    -3.857180     7.438167     2.496120
H     3.397633     3.441495    -3.581275
O     3.241674     4.410560    -3.489988
H     2.276518     4.472264    -3.596671
H    -6.104834    -1.635797    -3.422503
O    -6.186315    -2.214052    -2.637431
H    -6.969710    -1.906139    -2.128342
H     6.480942     1.071937     4.737485
O     6.086387     1.611553     5.439522
H     6.271714     2.529945     5.145967
H     1.359985     1.706415    -5.820066
O     1.167606     1.111836    -5.064279
H     1.533698     0.249224    -5.332202
H    -2.474068     2.976549     10.488333
O    -2.260056     2.068741     10.217124
H    -2.857872     1.865892     9.485741
H     7.642539    -0.476610     3.083492
O     6.891284     0.097594     3.251958
H     6.201080    -0.503815     3.633566
H    -5.912298    -7.974714    -0.451193
O    -5.043207    -8.030646     0.018349
H    -5.006090    -7.260359     0.614823
H    -5.172914    -0.148847    -4.699713
O    -5.788767    -0.862919    -4.936112
H    -6.627969    -0.423631    -5.135157
H     1.891363    -0.216547    -7.508578
O     1.687198     0.252742    -8.353356
H     2.264273    -0.152381    -9.006189
H     4.874692    -1.407509    -9.298455
O     3.948665    -1.181468    -9.580276
H     3.927550    -1.302641    -10.528874
H     7.585853    -2.547021     4.204942
O     7.731584    -2.584686     3.245358
H     7.240246    -3.377690     2.975949
H     6.749122    -5.876516     2.698696
O     6.810719    -5.199322     3.398039
H     7.687233    -5.281949     3.814849
H    -1.830050     8.946066     3.486478
O    -1.582202     9.253612     4.383806
H    -2.430832     9.384882     4.839929
H    -7.390583     1.530604    -5.236795
O    -7.963231     0.785607    -4.989095
H    -8.865876     1.183260    -4.913130
H     6.928748    -1.090282    -8.401939
O     6.348249    -1.813361    -8.663238
H     6.122710    -2.262045    -7.829974
H    -1.691848     6.214932    -7.026855
O    -2.087485     5.389470    -6.750621
H    -1.837162     5.261527    -5.787062
H     0.013305     3.327396     9.023913
O     0.213005     2.408789     9.281068
H    -0.583972     2.143745     9.789119
H     6.770491    -2.774293    -2.698459
O     6.242147    -3.518874    -2.355129
H     6.712294    -4.329313    -2.599852
H    -4.065613    -3.100531    -4.923307
O    -4.222982    -2.990590    -5.887726
H    -4.771392    -2.198400    -5.944606
H     1.995048     2.203693     8.466236
O     2.657513     2.316388     7.774904
H     3.082047     1.447045     7.660970
H    -6.882407    -5.238994    -1.372739
O    -7.809489    -5.483748    -1.601345
H    -7.936721    -5.105165    -2.495815
H    -3.823790     5.255203     5.697950
O    -3.794013     6.022234     5.105176
H    -2.860691     6.319390     5.197276
H    -7.877907     0.057863    -1.948461
O    -7.390154     0.781389    -2.364312
H    -7.619595     0.767880    -3.317298
H     5.847577     0.140915     0.412971
O     5.624587     0.863431     1.032378
H     6.136386     0.671431     1.845126
H    -6.204725     3.308480     7.404584
O    -6.074578     2.792565     8.234360
H    -6.672924     2.029491     8.148794
H     2.306894    -8.075642    -0.818548
O     2.983745    -8.062449    -1.515212
H     2.760548    -8.779132    -2.126164
H    -2.732307    -3.988237    -6.175652
O    -1.977909    -4.552843    -5.942997
H    -1.700094    -4.258289    -5.047250
H    -5.637000     3.755039     5.315997
O    -6.286610     4.151285     5.932889
H    -6.125100     5.095663     5.917482
H    -0.993426    -7.129611    -3.143900
O    -0.527062    -6.456239    -2.614988
H     0.382680    -6.387332    -2.990687
H     4.455604     2.035457     5.127199
O     3.513240     2.272458     5.007858
H     3.130122     2.289315     5.890239
H     4.115258     4.678056     6.293498
O     4.193094     5.407122     5.673752
H     3.625192     5.163147     4.904156
H     2.770342     3.629302     3.919634
O     2.589831     4.568475     3.751494
H     2.469016     4.664235     2.784968
H     9.401620     0.227364    -1.074722
O     8.595974     0.389809    -0.580393
H     8.422640    -0.428336    -0.085178
H    -2.091517     5.337000     10.649368
O    -2.811631     4.707178     10.883256
H    -3.029132     4.886162     11.798297
H     7.991276    -2.993057     0.333261
O     8.410561    -2.144628     0.585885
H     8.345908    -2.137786     1.548267
H     5.375615     3.682424     3.518372
O     6.032017     3.951446     4.182987
H     5.618024     4.669553     4.683509
H    -4.199812     5.031608     9.786954
O    -4.834422     5.178881     9.065486
H    -5.444112     4.428506     9.065847
H    -6.996833    -3.510281    -3.458595
O    -7.614623    -4.127735    -3.903482
H    -7.093381    -4.567276    -4.607028
H     0.034869     6.151128     10.764931
O    -0.830879     6.479744     10.518015
H    -0.717322     6.908311     9.650408
H     2.590188     1.487255    -4.103228
O     3.467829     1.843148    -3.866735
H     3.790690     1.330791    -3.095411
H    -6.953067    -0.222993     7.237850
O    -7.463622     0.554536     7.517194
H    -8.087603     0.735396     6.813147
H    -2.886568    -9.644766    -0.665022
O    -2.650243    -8.777127    -1.041608
H    -3.511790    -8.311964    -0.971461
H    -10.072822     3.033080    -4.884506
O    -10.187272     2.116188    -4.600810
H    -10.401764     2.202766    -3.650977
H    -2.044188    -3.023041     4.633238
O    -2.918385    -3.464691     4.704353
H    -2.910027    -4.084529     3.949445
H    -0.143845    -7.982994     2.516460
O     0.682837    -7.765365     2.960991
H     1.399794    -8.064111     2.374271
H     6.729632    -2.347951     6.398719
O     7.180684    -3.057587     5.936543
H     6.552624    -3.794202     5.900316
H    -5.248237    -2.004019     6.964075
O    -5.927080    -1.509809     6.479631
H    -5.910277    -1.888771     5.571427
H     0.829160     3.012591    -7.114314
O     1.747564     2.684161    -7.170932
H     1.734917     1.934812    -7.794634
H    -3.958899     8.759100     6.665102
O    -3.958799     8.754457     5.707739
H    -4.081623     7.825827     5.442654
H    -2.080035     10.297464    -2.751226
O    -2.982561     10.475985    -3.052293
H    -2.913411     11.108265    -3.766936
H     9.436063    -4.031831     4.050927
O     9.159789    -4.708982     4.676098
H     8.729232    -4.235993     5.399191
H    -0.716523    -6.017088    -5.817480
O    -0.010903    -6.580599    -5.483756
H     0.823287    -6.117733    -5.703107
H     1.814913     8.277189     0.650329
O     1.509516     8.596045    -0.227615
H     2.323339     8.634665    -0.759375
H     3.492080     2.917728    -6.665136
O     4.321047     2.630892    -6.256273
H     4.077834     2.358590    -5.346407
H     3.723151     7.126933    -1.243559
O     3.926183     8.062644    -1.459777
H     4.294405     8.005061    -2.353423
H     4.394809    -0.020205    -7.908686
O     4.772769     0.129329    -7.040212
H     4.588978     1.061361    -6.798729
H     6.035068     1.942398    -0.479229
O     6.598841     2.135390    -1.242211
H     7.424841     1.658123    -1.048277
H     6.713496    -8.422714    -1.586347
O     7.348708    -8.212491    -2.323931
H     7.715293    -9.047049    -2.611081
H    -5.278727    -5.819712    -5.381637
O    -5.901732    -5.150685    -5.691298
H    -5.355304    -4.380330    -5.932581
H     0.683821     7.190055     7.591339
O    -0.217318     7.216313     7.951996
H    -0.773931     7.227471     7.135215
H    -8.885275    -2.871992    -4.074820
O    -9.407455    -2.064644    -3.907799
H    -9.124825    -1.400097    -4.539861
H    -2.383754    -6.003571    -2.117099
O    -3.268913    -5.731933    -2.379841
H    -3.448301    -6.096299    -3.272224
H    -2.970589    -5.926052    -5.380334
O    -3.567309    -6.535739    -4.903944
H    -3.079475    -7.354044    -4.738040
H    -1.399712     3.701366    -6.981455
O    -0.857179     2.947741    -6.709233
H    -1.092538     2.160556    -7.256909
H    -0.206053     0.392355    -8.207911
O    -1.102381     0.625876    -7.923888
H    -1.274899     0.103894    -7.124338
H    -10.427276     4.015450    -2.721782
O    -10.491662     3.237940    -2.151692
H    -9.661379     3.215266    -1.644068
H     4.582177     4.091882     1.713152
O     4.376358     3.171198     1.994319
H     5.093087     2.596130     1.713434
H     6.486514     1.399946    -4.222681
O     6.185777     0.776869    -3.526835
H     6.216752     1.274332    -2.684211
H     9.647450    -2.208480    -0.927888
O     9.922507    -1.994864    -1.828355
H     9.120498    -1.659909    -2.271653
H     9.983882    -3.307460    -3.094696
O     9.717926    -3.961782    -3.767816
H     9.321632    -3.457068    -4.488666
H    -8.112636    -8.363137    -0.802807
O    -7.386426    -8.026835    -1.335559
H    -7.634838    -7.078828    -1.496289
H     4.149700     6.077817    -3.832655
O     4.809005     6.781074    -3.750399
H     5.646598     6.329705    -3.612819
H     0.128864    -8.184937    -5.192036
O     0.158462    -9.167554    -5.059205
H     0.304351    -9.533333    -5.931389
H    -2.208753    -8.756480    -2.815657
O    -2.000313    -8.420590    -3.707715
H    -1.317625    -8.976049    -4.111174
H     2.211853    -10.825011    -3.450999
O     2.174122    -9.869704    -3.443676
H     1.384860    -9.602707    -3.965289
H     6.830888     3.332643    -4.583108
O     6.890018     2.652963    -5.282427
H     6.095354     2.782398    -5.822267
H    -3.532758    -3.715939     7.744357
O    -3.652554    -2.930763     7.211602
H    -3.400455    -3.171329     6.293843
H    -0.628192    -3.385123    -6.706359
O    -0.000393    -2.651689    -6.716929
H    -0.483642    -1.876772    -6.376262
H     0.661853     0.480815     8.759706
O     0.670532    -0.235562     8.120943
H    -0.250907    -0.527361     8.035153
H    -5.849107     7.338824    -4.253153
O    -6.351327     6.717253    -4.811845
H    -6.635435     5.987124    -4.218367
H    -4.297055     9.080349    -3.271555
O    -4.830562     8.283122    -3.162387
H    -4.419718     7.806538    -2.422919
H    -9.723105     5.756542    -4.638318
O    -10.254191     4.950854    -4.472223
H    -11.135643     5.148785    -4.790529
H     2.769695     6.534100     6.129142
O     1.809475     6.628455     6.228141
H     1.468172     5.713959     6.128435
H     4.791237     8.555902     0.065064
O     5.109930     8.560014     0.985545
H     5.519215     7.697077     1.118162
H     4.166263    -7.430648    -4.320572
O     3.408280    -7.717195    -4.861995
H     3.130198    -8.558574    -4.485011
H     0.370036     8.667461     4.221186
O     1.049119     8.024074     3.993681
H     1.278114     7.533836     4.809231
H     5.230023     4.192670    -3.166290
O     6.191616     4.165694    -3.114637
H     6.403156     3.586475    -2.365787
H    -2.554196    -1.536257     7.589348
O    -2.045678    -0.741193     7.806777
H    -2.672402    -0.115566     8.180439
H    -9.044360     7.899832    -4.145326
O    -8.980752     7.313007    -4.900337
H    -8.023384     7.151441    -5.036605
H     3.562965    -8.973931     1.116794
O     2.887328    -8.340702     1.364371
H     3.361837    -7.534900     1.641989
H     3.575219     8.181943     1.812836
O     2.786235     7.616792     1.927627
H     2.340707     7.853324     2.753887
N    -3.987802    -10.576093     0.580047
H    -4.543739    -11.315998     0.321356
H    -4.579461    -9.797672     0.570204
