603

H     0.204850     3.029160    -0.676112
O     0.728272     2.360068    -1.167670
H     1.666750     2.489378    -0.893569
H    -0.075299    -1.304073     3.158743
O     0.317598    -0.604570     2.614090
H    -0.160509     0.209204     2.845586
H    -2.394520     2.408938    -0.535056
O    -2.184471     1.939259     0.289616
H    -2.200932     0.991140     0.065627
H    -4.661229     0.548971     2.183131
O    -4.978199    -0.384440     2.197290
H    -4.473167    -0.862793     1.531546
H     0.066744    -0.308458     0.958423
O    -0.129516    -0.073180     0.030963
H     0.209272     0.823548    -0.090430
H    -0.154233    -3.573608     3.788679
O    -0.433358    -2.742917     4.207811
H     0.212071    -2.571499     4.910021
H    -4.884013     2.531430     1.328650
O    -4.245035     2.122626     1.944462
H    -3.401959     2.104247     1.432244
H    -3.243139     3.894412    -2.213544
O    -2.505713     3.297775    -1.981115
H    -2.146637     3.008780    -2.840219
H    -0.122451    -3.805315     0.514164
O     0.217439    -2.987462     0.931402
H    -0.570174    -2.500409     1.241730
H    -2.376676    -1.536469     2.475429
O    -2.186727    -2.003622     1.635381
H    -2.444584    -1.417600     0.904750
H     2.076734    -1.446294    -1.111558
O     2.308150    -1.698295    -0.193734
H     1.518442    -2.124969     0.190220
H    -1.389341     1.825740     1.914293
O    -1.481411     1.429144     2.790795
H    -1.467686     2.142297     3.454899
H     0.212887    -2.706486    -1.560360
O    -0.542638    -2.094936    -1.616204
H    -0.363744    -1.367582    -0.983336
H    -3.433544    -2.926950    -0.384658
O    -2.715576    -3.419711    -0.803435
H    -2.005559    -2.789180    -1.022550
H     2.772918     0.130706     2.941964
O     2.871685    -0.050720     3.903897
H     2.962330     0.842672     4.307618
H    -3.525322     6.378719    -0.548192
O    -3.286148     7.040541    -1.248820
H    -3.144819     7.886150    -0.779340
H     3.903861     0.583586     1.194380
O     2.953327     0.401804     1.309918
H     2.716401    -0.351090     0.731032
H    -5.776815     0.840125    -1.604997
O    -4.866462     1.167384    -1.477986
H    -4.977880     1.996529    -0.967722
H    -1.210370     5.398813     2.208410
O    -1.835109     4.651442     2.092139
H    -1.913813     4.233882     2.955097
H     3.496231     2.761756     0.430846
O     3.249609     2.718025    -0.508599
H     3.581874     1.874788    -0.857707
H     1.495615    -4.701113    -2.238018
O     1.560207    -3.923530    -1.665327
H     2.354459    -3.462350    -2.016734
H    -0.916797    -0.089262    -2.543310
O    -0.281673     0.562315    -2.867303
H    -0.022423     1.145896    -2.131029
H     1.702053    -4.687358    -0.166211
O     1.808805    -5.323722     0.577076
H     1.345055    -6.134977     0.281763
H    -1.221517    -3.270196    -2.871280
O    -1.047253    -3.954663    -3.530655
H    -0.921680    -4.800899    -3.060407
H    -2.781490     3.313563     4.703889
O    -1.800191     3.310879     4.670795
H    -1.508176     2.909985     5.507735
H     0.961746     5.038243     4.076439
O     0.015674     5.270600     4.127690
H    -0.456623     4.467724     4.385933
H    -1.727207    -4.652185    -0.361558
O    -0.962419    -5.192852    -0.075260
H    -1.310799    -5.878788     0.503578
H    -3.912124     5.828276    -2.603061
O    -4.262797     4.993797    -2.931902
H    -4.107199     4.957650    -3.899991
H    -2.429615    -3.687954     1.944264
O    -2.448344    -4.591720     2.321182
H    -1.508743    -4.829631     2.462851
H    -4.690452    -2.984118    -2.893281
O    -3.837713    -3.217523    -3.298416
H    -3.507232    -4.010629    -2.832018
H     0.338364     1.381311     4.619245
O     0.845056     2.140815     4.285149
H     0.892922     2.800795     4.991130
H    -4.651338    -5.172853    -1.562883
O    -5.353604    -4.818749    -0.990072
H    -5.141140    -5.172003    -0.105334
H     2.331848    -6.487780    -4.024710
O     1.995220    -6.158151    -3.171423
H     2.428532    -6.731628    -2.507317
H     0.472777    -3.385131    -3.995512
O     1.276199    -3.018937    -4.417739
H     0.957684    -2.648887    -5.267585
H     1.964232    -1.750906     2.991356
O     2.119798    -2.682031     2.775204
H     1.434244    -2.896414     2.108048
H    -3.009811    -1.813839    -3.204256
O    -2.587808    -0.927287    -3.139307
H    -3.242706    -0.282043    -3.461026
H    -3.188257     4.976057     1.076854
O    -3.969551     5.349079     0.621358
H    -4.385284     5.907746     1.326504
H     0.876790     2.255364     2.594818
O     0.978554     2.249611     1.623702
H     1.705523     1.626143     1.460761
H     0.194000     5.654718    -0.759382
O     0.716345     6.315941    -1.268382
H     0.857619     7.116487    -0.713549
H     0.344363     7.037991     2.588323
O    -0.017211     6.656558     1.771159
H     0.646887     5.985581     1.510960
H    -2.480087     0.218351     3.344459
O    -2.702231    -0.595095     3.850208
H    -1.942163    -0.633811     4.472516
H    -0.896045     0.560040     6.029656
O    -0.621426     0.039664     5.256049
H     0.091744    -0.563554     5.543998
H     0.710587    -4.993256     1.992454
O     0.167996    -5.101810     2.796810
H     0.312161    -6.022161     3.070022
H    -2.117002    -8.088755     0.461913
O    -1.795088    -7.600112     1.246914
H    -2.581715    -7.287928     1.701766
H    -0.374482     6.859955    -2.328345
O    -1.120483     7.279699    -2.828286
H    -1.910930     7.153672    -2.265241
H    -1.111077     4.309261     0.573369
O    -0.737427     4.369336    -0.322470
H    -1.443528     4.126528    -0.955193
H    -4.409365     2.750848     3.505961
O    -4.408581     2.922360     4.470375
H    -4.492304     2.039780     4.880399
H     2.023061    -3.578783     4.255748
O     1.959086    -4.050296     5.109365
H     2.465132    -3.512598     5.739932
H     4.689270    -3.195845     0.852097
O     4.529967    -3.121148    -0.114732
H     3.670908    -2.644051    -0.199364
H    -2.719242    -0.750737    -1.347394
O    -3.047126    -0.479860    -0.473342
H    -3.847444     0.045771    -0.681458
H    -1.610509    -0.767323    -4.625732
O    -1.103135    -0.552447    -5.429488
H    -0.393371     0.044369    -5.145008
H     1.799260    -1.720401    -3.368616
O     1.892085    -0.973124    -2.745879
H     1.114865    -0.395859    -2.877927
H     3.663399    -3.120958     2.562701
O     4.622481    -3.350361     2.490292
H     4.676740    -4.310333     2.618606
H     3.425771    -6.119698     3.138683
O     3.782225    -5.920107     2.238450
H     3.045116    -5.574956     1.694606
H    -3.337767     1.605289    -4.176816
O    -4.182962     1.135017    -3.986073
H    -4.401117     1.281871    -3.029817
H    -5.079798     4.147095     0.063251
O    -5.518406     3.280935    -0.038893
H    -6.448525     3.399799    -0.321841
H     6.737758    -1.186845    -1.349979
O     5.964836    -1.036333    -0.799557
H     5.545210    -1.903668    -0.601133
H     4.597332    -3.174443    -2.457923
O     3.730365    -3.002903    -2.875355
H     3.733190    -3.622533    -3.630613
H     4.433085    -2.289047     5.633265
O     4.089847    -2.753571     6.426837
H     4.424462    -3.658824     6.346357
H    -0.754663     6.342891     5.072636
O    -1.351600     6.919469     5.609661
H    -1.364776     7.795950     5.166999
H     4.701649    -0.140938    -1.456955
O     3.934973     0.401398    -1.721618
H     3.242156    -0.199224    -2.051162
H    -0.736748     4.517401    -4.037800
O    -1.519309     5.060291    -4.246583
H    -1.367834     5.927562    -3.825501
H     0.664160     3.199040    -2.656105
O     0.672734     3.574850    -3.564903
H     0.719719     2.810806    -4.149730
H    -5.383174    -5.191847     1.802088
O    -4.686318    -5.787307     1.448350
H    -3.845961    -5.371001     1.718846
H     7.887254    -1.697346    -4.020000
O     7.628391    -1.383257    -3.121825
H     7.141013    -0.539515    -3.279085
H     3.705344    -5.077953    -5.277365
O     4.470606    -4.705697    -4.798593
H     4.852220    -5.416008    -4.249957
H    -3.785612     0.023579     4.937543
O    -4.386508     0.488466     5.569428
H    -5.047151    -0.169102     5.861440
H     3.466388    -5.945283    -0.504711
O     4.339304    -5.698483    -0.822426
H     4.415314    -4.736020    -0.679493
H     5.005824    -0.343405    -4.150396
O     4.473969    -1.056859    -4.541198
H     4.143640    -1.637669    -3.823006
H    -1.167269     1.565886    -3.934378
O    -1.817320     2.186522    -4.320460
H    -1.459698     2.516535    -5.167624
H     4.887611    -6.326934    -2.299276
O     5.222107    -6.651857    -3.164359
H     6.038686    -7.134363    -2.975742
H     8.743971    -5.099831    -2.900458
O     8.051767    -5.516132    -2.342636
H     8.086006    -6.473781    -2.442353
H     2.340574     4.718483     0.452752
O     1.761204     4.701525     1.223845
H     1.403317     3.781478     1.302319
H    -4.416686    -2.629715     4.237169
O    -5.310487    -2.290296     4.033877
H    -5.173150    -1.509991     3.457299
H    -5.845455    -3.194457     1.322859
O    -6.308640    -3.750628     1.991709
H    -6.120760    -3.314010     2.841775
H     1.684256     3.475737     6.864957
O     1.061728     3.990615     6.329996
H     0.278394     4.144618     6.900877
H     5.000051    -2.167023     3.627708
O     5.020467    -1.447849     4.290802
H     4.208655    -0.891651     4.133099
H     2.388632    -5.572483     4.852476
O     2.768679    -6.456771     4.593850
H     2.023567    -7.038324     4.420152
H     2.261340    -4.528457    -6.776864
O     2.094639    -5.015742    -5.959213
H     1.827564    -4.322673    -5.306944
H     6.440954    -4.106994    -0.487674
O     7.194446    -4.508998    -0.024005
H     7.701835    -4.932987    -0.743841
H    -1.727836     4.498722     7.699854
O    -0.829204     4.597346     8.085713
H    -0.648278     5.556541     8.108885
H    -5.112144     5.686100    -5.601817
O    -4.504631     4.922562    -5.620147
H    -3.747055     5.135805    -6.186223
H     3.252787    -2.577721    -8.378281
O     3.170846    -3.074907    -7.546359
H     4.054813    -3.024209    -7.139301
H    -0.655612     8.822914    -2.284621
O    -0.532698     9.652198    -1.766943
H     0.229173     9.478453    -1.189500
H     2.064601    -0.907468     5.219726
O     1.491685    -1.432816     5.807497
H     1.584682    -1.086110     6.704269
H     5.210889    -2.033893    -5.680778
O     5.562174    -2.800095    -6.200603
H     5.282625    -3.590311    -5.685323
H     5.693012    -5.211567     4.701958
O     5.170559    -5.125572     5.528347
H     4.448844    -5.757407     5.443228
H    -3.976975     1.154635     7.008534
O    -3.785355     1.631558     7.851867
H    -4.661601     2.017629     8.111567
H    -1.847727     9.612980    -0.754034
O    -2.708363     9.487451    -0.279681
H    -3.319394     10.115077    -0.669189
H    -5.944107     4.685544    -2.943222
O    -6.852616     4.565991    -3.287677
H    -6.761708     3.862686    -3.963800
H     0.096176    -7.067488    -1.128635
O     0.559980    -7.502427    -0.379992
H    -0.119742    -7.696324     0.268592
H    -7.633965     3.788664    -1.978137
O    -7.895864     3.202812    -1.237332
H    -7.752734     2.293614    -1.575547
H     3.970453    -0.885471     6.995785
O     3.979298     0.078668     6.985551
H     4.791813     0.367941     6.553946
H     2.261524     5.793072    -1.180205
O     3.197083     5.500482    -1.065217
H     3.373819     4.959263    -1.857655
H     6.550604    -5.931764     0.689732
O     6.181667    -6.667537     1.223815
H     5.277086    -6.389987     1.450172
H    -3.871448     4.739013     7.777644
O    -3.304312     4.275256     7.119763
H    -3.498051     3.332019     7.231234
H     5.762897    -7.948083     0.157384
O     5.476137    -8.635637    -0.480196
H     4.646385    -8.311323    -0.874371
H    -0.560732     2.050959     7.695943
O    -1.193512     1.985412     6.960582
H    -2.062274     1.844477     7.356788
H    -6.382054    -0.119975     1.064237
O    -6.701593    -0.204927     0.151263
H    -7.620420    -0.475434     0.168919
H    -5.370484    -3.064903    -0.582043
O    -5.118655    -2.362028     0.043146
H    -5.688351    -1.589257    -0.145958
H     4.319458     5.576383     0.320930
O     4.653124     5.678189     1.226118
H     3.958440     6.189091     1.677446
H    -9.041337    -1.747505    -2.250916
O    -8.494079    -1.544979    -1.464703
H    -8.621706    -2.280849    -0.826234
H    -5.519246     3.463282    -5.530252
O    -6.036899     2.753473    -5.114418
H    -5.370510     2.168389    -4.699832
H     3.184872    -0.899368    -5.646059
O     2.329500    -1.019089    -6.111409
H     2.413994    -1.868612    -6.585595
H     8.118975    -1.358792    -6.014814
O     8.129683    -2.224506    -5.561890
H     7.270916    -2.623518    -5.805762
H     7.626288     0.977158    -6.303737
O     7.435025     0.128846    -6.716107
H     6.452872     0.084150    -6.752117
H    -7.860265    -3.691172     0.935839
O    -8.538372    -3.585224     0.251025
H    -8.439764    -4.345383    -0.349683
H    -2.405696     8.738111     1.285259
O    -2.255221     8.150727     2.039283
H    -1.485104     7.597155     1.817525
H    -4.443758     6.440339     3.491108
O    -4.613528     6.865148     2.633937
H    -3.849989     7.450811     2.493829
H     3.404786     3.439557    -3.574562
O     3.251859     4.408960    -3.482333
H     2.287010     4.473658    -3.590869
H    -6.112502    -1.610340    -3.437974
O    -6.196022    -2.188418    -2.653124
H    -6.980244    -1.880271    -2.145496
H     6.466480     1.054173     4.747577
O     6.072303     1.593841     5.449704
H     6.260042     2.512197     5.157360
H     1.366331     1.712607    -5.819067
O     1.172910     1.118276    -5.062989
H     1.534725     0.254347    -5.332770
H    -2.494078     2.977427     10.484086
O    -2.281815     2.069395     10.212251
H    -2.879036     1.868798     9.479727
H     7.626848    -0.496500     3.094672
O     6.876800     0.079639     3.261686
H     6.184080    -0.519796     3.641865
H    -5.658681    -8.055256    -0.687423
O    -4.924191    -8.123193    -0.040486
H    -4.928148    -7.305109     0.480243
H    -5.173458    -0.125326    -4.712546
O    -5.790642    -0.837422    -4.951092
H    -6.628486    -0.395933    -5.150800
H     1.894191    -0.210975    -7.510766
O     1.694384     0.264045    -8.352282
H     2.263023    -0.146595    -9.010129
H     4.780268    -1.303232    -9.266764
O     3.863377    -1.235172    -9.605337
H     3.939873    -1.650033    -10.471802
H     7.562178    -2.567353     4.213559
O     7.709901    -2.605181     3.254257
H     7.216185    -3.396187     2.983471
H     6.719457    -5.893900     2.702842
O     6.780965    -5.217427     3.402696
H     7.656466    -5.302079     3.821437
H    -1.820477     8.952121     3.489214
O    -1.573327     9.258037     4.387319
H    -2.422415     9.391270     4.842028
H    -7.385713     1.560779    -5.251427
O    -7.960752     0.817117    -5.005382
H    -8.862491     1.216870    -4.930750
H     7.009026    -1.114970    -8.285445
O     6.410263    -1.820835    -8.567897
H     6.150751    -2.245443    -7.727664
H    -1.670274     6.230779    -7.026748
O    -2.069367     5.406591    -6.751728
H    -1.820843     5.276587    -5.788179
H    -0.003080     3.322957     9.024492
O     0.193763     2.403584     9.281197
H    -0.604997     2.140264     9.787429
H     6.758667    -2.786078    -2.690946
O     6.227825    -3.529870    -2.350070
H     6.696424    -4.341296    -2.594200
H    -4.074123    -3.079947    -4.935712
O    -4.227836    -2.968987    -5.900714
H    -4.774678    -2.175818    -5.958788
H     1.976414     2.194701     8.469340
O     2.640708     2.305989     7.779505
H     3.062825     1.435510     7.665655
H    -6.906733    -5.203040    -1.386210
O    -7.822167    -5.472913    -1.631896
H    -7.955166    -5.071574    -2.515544
H    -3.828785     5.264500     5.693438
O    -3.795596     6.032107     5.101603
H    -2.861650     6.326500     5.195759
H    -7.882798     0.085929    -1.965069
O    -7.392746     0.808950    -2.379267
H    -7.620338     0.796545    -3.332695
H     5.838321     0.128665     0.421254
O     5.616524     0.851443     1.040607
H     6.125892     0.657371     1.854357
H    -6.217995     3.322588     7.393977
O    -6.090725     2.805522     8.223466
H    -6.691048     2.044156     8.135873
H     2.278305    -8.076071    -0.823886
O     2.956066    -8.065068    -1.519462
H     2.730876    -8.779715    -2.131847
H    -2.740551    -3.970942    -6.187337
O    -1.988102    -4.537814    -5.953335
H    -1.711532    -4.243835    -5.057147
H    -5.645302     3.769791     5.306680
O    -6.294535     4.167338     5.923111
H    -6.130972     5.111361     5.908183
H    -1.016907    -7.119472    -3.147289
O    -0.544244    -6.449440    -2.619542
H     0.362914    -6.380167    -3.000967
H     4.442857     2.022556     5.135040
O     3.501383     2.261858     5.013945
H     3.116481     2.279522     5.895546
H     4.107426     4.665084     6.303082
O     4.189218     5.394141     5.683839
H     3.621723     5.152759     4.913084
H     2.764032     3.622159     3.925518
O     2.587012     4.562084     3.758060
H     2.467778     4.659209     2.791436
H     9.395992     0.206860    -1.058999
O     8.588816     0.370168    -0.567612
H     8.412668    -0.447371    -0.072441
H    -2.105342     5.336732     10.648172
O    -2.827471     4.708552     10.880154
H    -3.046474     4.887448     11.794850
H     7.973301    -3.011274     0.342879
O     8.395022    -2.164469     0.596622
H     8.328195    -2.157705     1.558896
H     5.370353     3.668563     3.529205
O     6.026378     3.934829     4.195330
H     5.613413     4.653526     4.695947
H    -4.213064     5.037737     9.781566
O    -4.845773     5.187698     9.059017
H    -5.457669     4.439100     9.057283
H    -7.008526    -3.482285    -3.478077
O    -7.628874    -4.094883    -3.925683
H    -7.107481    -4.537973    -4.627047
H     0.023215     6.144910     10.768312
O    -0.841176     6.476197     10.520227
H    -0.724952     6.905264     9.653219
H     2.592568     1.488963    -4.100963
O     3.471455     1.841022    -3.861814
H     3.789917     1.327720    -3.089530
H    -6.975913    -0.206307     7.222338
O    -7.484569     0.572660     7.501279
H    -8.107213     0.755196     6.796472
H    -2.743294    -9.874639    -0.810316
O    -2.679670    -8.933259    -0.971480
H    -3.585685    -8.566135    -0.732073
H    -10.064405     3.070578    -4.901936
O    -10.182007     2.153612    -4.619818
H    -10.398043     2.239189    -3.670296
H    -2.070006    -3.017215     4.623720
O    -2.944942    -3.457185     4.693722
H    -2.938662    -4.075976     3.938226
H    -0.180339    -7.979148     2.503637
O     0.645940    -7.768484     2.951661
H     1.364340    -8.065327     2.365517
H     6.703097    -2.368008     6.405994
O     7.152485    -3.078740     5.943848
H     6.522194    -3.813361     5.906508
H    -5.275633    -1.991610     6.950175
O    -5.951671    -1.494207     6.465188
H    -5.934972    -1.872502     5.556528
H     0.842990     3.021336    -7.113153
O     1.760212     2.689371    -7.166388
H     1.746877     1.941367    -7.792419
H    -3.956092     8.767796     6.663832
O    -3.953589     8.764232     5.706471
H    -4.078873     7.836317     5.440039
H    -2.055138     10.310267    -2.747790
O    -2.956711     10.491793    -3.049872
H    -2.884714     11.124064    -3.764250
H     9.408431    -4.057635     4.062161
O     9.128448    -4.734957     4.685502
H     8.698386    -4.261618     5.408691
H    -0.731382    -6.006651    -5.825745
O    -0.028005    -6.572238    -5.490403
H     0.807555    -6.111044    -5.709515
H     1.827840     8.275768     0.659150
O     1.525062     8.596466    -0.218965
H     2.339878     8.633303    -0.749286
H     3.504508     2.916067    -6.660139
O     4.331473     2.626100    -6.248836
H     4.084427     2.356243    -5.339311
H     3.736222     7.122059    -1.232579
O     3.942653     8.057376    -1.447277
H     4.311866     7.999825    -2.340496
H     4.389418    -0.010659    -7.903966
O     4.779395     0.127884    -7.039305
H     4.597127     1.058565    -6.789207
H     6.031981     1.930870    -0.469392
O     6.597812     2.122169    -1.231299
H     7.422220     1.643068    -1.035618
H     6.684276    -8.435271    -1.584636
O     7.320968    -8.226407    -2.321346
H     7.687464    -9.061603    -2.606697
H    -5.298752    -5.795455    -5.395207
O    -5.915834    -5.123798    -5.710872
H    -5.364417    -4.356158    -5.949000
H     0.680806     7.185216     7.597001
O    -0.220887     7.213525     7.956061
H    -0.776001     7.227024     7.138262
H    -8.895004    -2.837977    -4.096053
O    -9.415398    -2.029111    -3.930018
H    -9.128944    -1.365294    -4.561100
H    -2.409088    -5.991128    -2.129438
O    -3.287169    -5.705277    -2.398674
H    -3.473936    -6.080855    -3.284232
H    -2.984511    -5.907144    -5.395657
O    -3.584400    -6.516343    -4.922377
H    -3.102582    -7.336481    -4.755058
H    -1.385530     3.715676    -6.983619
O    -0.845621     2.960861    -6.709815
H    -1.080668     2.174549    -7.259434
H    -0.197944     0.406241    -8.211671
O    -1.093811     0.642341    -7.927358
H    -1.269575     0.118356    -7.130000
H    -10.419780     4.051575    -2.739355
O    -10.487763     3.274003    -2.169783
H    -9.658405     3.248034    -1.660852
H     4.580996     4.082144     1.722950
O     4.372753     3.161569     2.002938
H     5.088540     2.585212     1.722460
H     6.488773     1.390901    -4.212012
O     6.186752     0.766735    -3.517523
H     6.215881     1.263510    -2.674299
H     9.634142    -2.230324    -0.914597
O     9.910825    -2.018738    -1.815091
H     9.111029    -1.678749    -2.258451
H     9.971086    -3.329139    -3.081038
O     9.705261    -3.980913    -3.756906
H     9.311531    -3.472951    -4.476740
H    -7.698667    -8.575262    -1.650672
O    -6.960532    -7.981341    -1.779230
H    -7.337952    -7.068173    -1.771242
H     4.164451     6.074475    -3.822057
O     4.825801     6.775559    -3.737622
H     5.661856     6.321608    -3.599436
H     0.099815    -8.178030    -5.197175
O     0.123846    -9.160865    -5.063507
H     0.273630    -9.526029    -5.935609
H    -2.332077    -8.677252    -2.697509
O    -2.097663    -8.414886    -3.607288
H    -1.451055    -9.033994    -3.964930
H     2.183467    -10.822314    -3.471662
O     2.138480    -9.867662    -3.449548
H     1.353331    -9.597273    -3.976575
H     6.839535     3.321026    -4.571121
O     6.897643     2.641428    -5.270758
H     6.104251     2.774704    -5.811804
H    -3.568090    -3.709742     7.731171
O    -3.681908    -2.922676     7.199928
H    -3.430342    -3.163107     6.282046
H    -0.634048    -3.372212    -6.714578
O    -0.003048    -2.641630    -6.719351
H    -0.485385    -1.864803    -6.382101
H     0.638234     0.474768     8.758490
O     0.645996    -0.241249     8.119276
H    -0.276298    -0.529970     8.031570
H    -5.830020     7.363433    -4.259134
O    -6.332957     6.743938    -4.819408
H    -6.620018     6.013752    -4.227355
H    -4.274654     9.099868    -3.273036
O    -4.810666     8.304115    -3.165507
H    -4.402438     7.825488    -2.425938
H    -9.707450     5.792682    -4.653104
O    -10.241088     4.988423    -4.488383
H    -11.121356     5.188779    -4.808436
H     2.767705     6.524954     6.137847
O     1.807613     6.621764     6.235316
H     1.463852     5.708361     6.134048
H     4.805897     8.546866     0.079464
O     5.123275     8.549228     1.000418
H     5.529594     7.684894     1.132947
H     4.144784    -7.433475    -4.322318
O     3.387905    -7.719275    -4.865631
H     3.105979    -8.559057    -4.488118
H     0.377301     8.666663     4.227444
O     1.055294     8.021818     4.000747
H     1.281132     7.530080     4.816245
H     5.238481     4.185956    -3.155878
O     6.199954     4.154565    -3.103373
H     6.408088     3.575419    -2.353570
H    -2.580959    -1.532071     7.580693
O    -2.070585    -0.738615     7.799833
H    -2.696503    -0.111640     8.172638
H    -9.023602     7.933337    -4.156541
O    -8.960272     7.347468    -4.912314
H    -8.003128     7.183012    -5.046824
H     3.529120    -8.979098     1.112326
O     2.852367    -8.346812     1.359513
H     3.326682    -7.541030     1.638668
H     3.585727     8.174713     1.824902
O     2.795336     7.611217     1.937787
H     2.348513     7.848437     2.763166
N     5.505571    -3.118190    -11.017215
H     6.080581    -3.351023    -11.750583
H     6.105267    -2.872502    -10.295969
