30

H     3.487343     2.656437     0.403813
O     3.292954     2.680957    -0.549590
H     3.544026     1.798945    -0.889376
H     4.236821     5.654405     0.335874
O     4.558014     5.766811     1.249522
H     3.840478     6.293646     1.654865
H     6.505595     1.034338     4.869395
O     6.095639     1.553799     5.577573
H     6.240269     2.479156     5.284666
H     7.526778    -0.670917     3.130934
O     6.853351    -0.000936     3.308729
H     6.134112    -0.562789     3.709919
H     5.759378     0.025531     0.382260
O     5.542261     0.738840     1.014808
H     6.017157     0.492819     1.834663
H     9.444398     0.110065    -1.008858
O     8.665917     0.316448    -0.478270
H     8.468126    -0.527527    -0.032141
H     5.318122     3.692472     3.675611
O     6.034974     3.969975     4.290557
H     5.629079     4.691100     4.805524
H     6.067787     2.034884    -0.488783
O     6.642638     2.131861    -1.257913
H     7.428926     1.608072    -1.033647
H     4.465302     4.168867     1.804302
O     4.416653     3.218984     2.071849
H     5.275467     2.869201     1.788613
N     7.271106     3.299960     1.707584
H     7.862646     2.546145     1.787190
H     7.274817     3.725300     2.577119
