36

H    -1.733626    -4.591628    -0.410532
O    -0.961890    -5.154759    -0.183306
H    -1.300216    -5.775500     0.475866
H    -2.430457    -3.578465     1.955422
O    -2.491496    -4.496450     2.305803
H    -1.548149    -4.780748     2.393122
H    -4.633844    -5.152745    -1.562931
O    -5.345432    -4.796206    -0.997676
H    -5.149852    -5.165815    -0.119614
H     0.709664    -4.947932     1.961421
O     0.168934    -5.075882     2.768598
H     0.401819    -5.985250     3.038546
H    -2.055655    -8.197966     0.650421
O    -1.641537    -7.683836     1.373180
H    -2.308549    -7.625892     2.090098
H    -5.427164    -5.031419     1.868114
O    -4.786628    -5.743147     1.579489
H    -3.911479    -5.303283     1.680716
H    -5.831814    -3.080343     1.321595
O    -6.305375    -3.630241     2.000063
H    -6.113967    -3.172220     2.844025
H    -5.698571    -8.066150    -0.773613
O    -4.957443    -8.141549    -0.128680
H    -4.995468    -7.335799     0.409519
H    -2.724363    -9.893523    -0.853618
O    -2.625199    -8.943137    -0.956977
H    -3.541964    -8.582084    -0.776197
H    -2.058435    -2.943249     4.617620
O    -2.918916    -3.407720     4.711992
H    -2.912428    -4.007249     3.940775
H    -0.039128    -8.008115     2.508022
O     0.772582    -7.801825     2.999410
H     1.492224    -8.078191     2.398403
N    -3.575112    -7.506725     3.335218
H    -3.342492    -7.032896     4.139630
H    -4.211944    -6.920075     2.876909
