603

H     0.217086     3.038404    -0.670459
O     0.740958     2.372032    -1.164278
H     1.679365     2.497443    -0.884190
H    -0.065693    -1.299248     3.159271
O     0.326597    -0.599669     2.614756
H    -0.149601     0.214808     2.846604
H    -2.385843     2.417556    -0.530317
O    -2.177421     1.947271     0.294354
H    -2.189795     0.999488     0.068959
H    -4.651429     0.553101     2.185717
O    -4.968238    -0.380443     2.198584
H    -4.462439    -0.857709     1.532600
H     0.078330    -0.300100     0.958102
O    -0.123061    -0.062709     0.032290
H     0.221667     0.831952    -0.089015
H    -0.142109    -3.568835     3.785192
O    -0.422467    -2.739924     4.207070
H     0.224284    -2.568407     4.907932
H    -4.875405     2.536332     1.333999
O    -4.236378     2.127298     1.949512
H    -3.393228     2.109537     1.436929
H    -3.235917     3.904409    -2.207161
O    -2.498606     3.307556    -1.975524
H    -2.138416     3.020398    -2.834738
H    -0.111142    -3.796847     0.510634
O     0.228108    -2.980123     0.930101
H    -0.559208    -2.492846     1.240282
H    -2.365929    -1.531298     2.474981
O    -2.177165    -1.997927     1.634544
H    -2.433498    -1.410457     0.904539
H     2.087574    -1.434599    -1.112678
O     2.318838    -1.692048    -0.196817
H     1.528662    -2.116185     0.187710
H    -1.378449     1.831260     1.918104
O    -1.473479     1.434417     2.794260
H    -1.458291     2.146960     3.458580
H     0.224448    -2.694421    -1.562212
O    -0.532294    -2.084146    -1.616729
H    -0.353029    -1.356682    -0.983667
H    -3.421691    -2.918678    -0.386311
O    -2.704255    -3.410813    -0.806652
H    -1.993896    -2.779952    -1.024350
H     2.787261     0.136010     2.939133
O     2.882288    -0.045349     3.904859
H     2.969255     0.847964     4.305536
H    -3.519348     6.386666    -0.538565
O    -3.281327     7.049741    -1.238365
H    -3.139553     7.894600    -0.767767
H     3.902106     0.599272     1.204960
O     2.947455     0.407242     1.323003
H     2.722363    -0.340374     0.735843
H    -5.767666     0.848438    -1.601690
O    -4.857506     1.176109    -1.474883
H    -4.968895     2.004460    -0.963370
H    -1.203466     5.404536     2.216095
O    -1.828777     4.657694     2.100247
H    -1.906030     4.238348     2.962376
H     3.485014     2.665140     0.375372
O     3.287940     2.688288    -0.577517
H     3.538888     1.806095    -0.916920
H     1.508074    -4.688484    -2.243107
O     1.571244    -3.911892    -1.669161
H     2.365731    -3.449211    -2.018718
H    -0.906361    -0.076272    -2.540298
O    -0.273518     0.576930    -2.865212
H    -0.011205     1.158876    -2.128370
H     1.714908    -4.676406    -0.170484
O     1.821335    -5.314042     0.571963
H     1.358252    -6.124968     0.275199
H    -1.209340    -3.257515    -2.873749
O    -1.036398    -3.941317    -3.534324
H    -0.909348    -4.787864    -3.064961
H    -2.772931     3.315581     4.709414
O    -1.791566     3.314604     4.677156
H    -1.499653     2.911466     5.512945
H     0.969561     5.042512     4.083131
O     0.023878     5.275302     4.137366
H    -0.448885     4.471517     4.392085
H    -1.715192    -4.643268    -0.365982
O    -0.950429    -5.184589    -0.080922
H    -1.298244    -5.870723     0.497934
H    -3.905499     5.838625    -2.593838
O    -4.256471     5.004811    -2.924059
H    -4.100012     4.969696    -3.891956
H    -2.417659    -3.682376     1.941406
O    -2.435928    -4.586633     2.317307
H    -1.496057    -4.824085     2.458353
H    -4.679222    -2.973731    -2.895076
O    -3.826815    -3.206499    -3.301202
H    -3.495233    -3.999361    -2.835156
H     0.347965     1.384769     4.622092
O     0.855594     2.145024     4.291274
H     0.900112     2.804317     4.997684
H    -4.638788    -5.163928    -1.567414
O    -5.341460    -4.811233    -0.994210
H    -5.128474    -5.165172    -0.109863
H     2.345126    -6.472507    -4.031505
O     2.007153    -6.144587    -3.178114
H     2.441841    -6.717585    -2.514476
H     0.483490    -3.370881    -3.998688
O     1.286504    -3.004875    -4.421935
H     0.967575    -2.631802    -5.269918
H     1.977477    -1.743121     2.987791
O     2.130894    -2.675467     2.774698
H     1.446988    -2.888501     2.105598
H    -2.999288    -1.802123    -3.205049
O    -2.577694    -0.915534    -3.139672
H    -3.233052    -0.270059    -3.459721
H    -3.181194     4.982168     1.084504
O    -3.962906     5.355414     0.629852
H    -4.378789     5.912833     1.335677
H     0.887578     2.261032     2.597211
O     0.986638     2.257937     1.626592
H     1.717832     1.637498     1.460905
H     0.200229     5.664762    -0.751624
O     0.720025     6.327946    -1.260609
H     0.862506     7.127103    -0.704577
H     0.350562     7.043773     2.598047
O    -0.011280     6.663204     1.780898
H     0.652777     5.992550     1.518519
H    -2.469905     0.222257     3.346263
O    -2.692302    -0.591486     3.851623
H    -1.931710    -0.631313     4.473067
H    -0.885950     0.560754     6.032263
O    -0.611126     0.041823     5.257962
H     0.102597    -0.561447     5.544255
H     0.723165    -4.985413     1.987767
O     0.180581    -5.096010     2.791949
H     0.325697    -6.016593     3.063681
H    -2.102708    -8.081016     0.453567
O    -1.781170    -7.593627     1.239447
H    -2.567929    -7.281896     1.694367
H    -0.368991     6.872077    -2.318720
O    -1.115586     7.292132    -2.818378
H    -1.905566     7.164613    -2.255249
H    -1.103750     4.316492     0.580182
O    -0.730805     4.379619    -0.315483
H    -1.435964     4.135844    -0.948567
H    -4.400355     2.753429     3.511250
O    -4.399806     2.923829     4.476008
H    -4.482912     2.040587     4.884746
H     2.035150    -3.573301     4.252096
O     1.972175    -4.046100     5.105438
H     2.476925    -3.508275     5.736474
H     4.700904    -3.183573     0.848994
O     4.540069    -3.112226    -0.117376
H     3.682487    -2.631633    -0.201766
H    -2.708696    -0.741167    -1.346420
O    -3.037674    -0.472275    -0.472262
H    -3.837479     0.054155    -0.679830
H    -1.600406    -0.752630    -4.625409
O    -1.093283    -0.536981    -5.429247
H    -0.383965     0.060316    -5.143875
H     1.808625    -1.706697    -3.370462
O     1.899767    -0.960778    -2.746674
H     1.123948    -0.382118    -2.878239
H     3.676173    -3.111005     2.559958
O     4.635285    -3.341173     2.489916
H     4.688041    -4.301670     2.614048
H     3.439093    -6.112295     3.131719
O     3.795450    -5.911852     2.231817
H     3.058469    -5.565700     1.688253
H    -3.329207     1.617720    -4.173085
O    -4.174647     1.147365    -3.983078
H    -4.392249     1.292641    -3.026430
H    -5.072063     4.153404     0.070344
O    -5.510590     3.287297    -0.032639
H    -6.440636     3.406228    -0.315470
H     6.746618    -1.185077    -1.368974
O     5.980852    -1.031405    -0.811278
H     5.555761    -1.894367    -0.609177
H     4.608043    -3.158649    -2.460410
O     3.740571    -2.989085    -2.877292
H     3.745337    -3.607086    -3.633810
H     4.446700    -2.282798     5.628497
O     4.106270    -2.746572     6.423898
H     4.437669    -3.652924     6.341727
H    -0.748033     6.345259     5.082291
O    -1.344371     6.921288     5.620607
H    -1.359203     7.797974     5.178304
H     4.712701    -0.119460    -1.454839
O     3.944406     0.415731    -1.726821
H     3.253244    -0.188757    -2.049936
H    -0.729903     4.531048    -4.030432
O    -1.512574     5.074123    -4.239427
H    -1.361361     5.940725    -3.816768
H     0.674075     3.212210    -2.649742
O     0.678009     3.588826    -3.558683
H     0.728286     2.825354    -4.143867
H    -5.370260    -5.187526     1.797581
O    -4.673191    -5.782248     1.443068
H    -3.832958    -5.365775     1.713903
H     7.897442    -1.678214    -4.021194
O     7.641040    -1.362923    -3.121782
H     7.149113    -0.521087    -3.281585
H     3.718166    -5.062672    -5.281573
O     4.480932    -4.689691    -4.800626
H     4.864533    -5.400447    -4.254086
H    -3.774948     0.025086     4.939347
O    -4.375933     0.488626     5.572475
H    -5.036365    -0.169709     5.863128
H     3.479172    -5.933421    -0.511751
O     4.352574    -5.686266    -0.827716
H     4.427489    -4.723484    -0.683965
H     5.014748    -0.325014    -4.150757
O     4.481398    -1.037952    -4.541453
H     4.153757    -1.619468    -3.823045
H    -1.158811     1.580069    -3.929712
O    -1.809904     2.199539    -4.316567
H    -1.451175     2.531704    -5.162113
H     4.900737    -6.312281    -2.305257
O     5.234154    -6.637708    -3.170645
H     6.052349    -7.117982    -2.983507
H     8.756463    -5.080870    -2.906359
O     8.065628    -5.499121    -2.347994
H     8.099724    -6.456362    -2.450968
H     2.351273     4.726868     0.463683
O     1.767989     4.710859     1.232389
H     1.413607     3.788445     1.308276
H    -4.404973    -2.627947     4.235658
O    -5.299018    -2.288563     4.033193
H    -5.162078    -1.507676     3.457238
H    -5.833763    -3.189906     1.320856
O    -6.296753    -3.747049     1.989139
H    -6.108785    -3.311382     2.839662
H     1.692556     3.476900     6.871305
O     1.071491     3.994349     6.337292
H     0.286799     4.146204     6.907045
H     5.013896    -2.153857     3.624960
O     5.033981    -1.434829     4.288310
H     4.219360    -0.881812     4.129948
H     2.402069    -5.567760     4.846471
O     2.782747    -6.451679     4.587700
H     2.037999    -7.033202     4.412314
H     2.274615    -4.507651    -6.782130
O     2.105127    -4.996227    -5.966685
H     1.839591    -4.304889    -5.311427
H     6.452841    -4.093155    -0.492240
O     7.207140    -4.494991    -0.029489
H     7.714170    -4.917951    -0.750363
H    -1.719462     4.497014     7.707231
O    -0.820617     4.596162     8.092827
H    -0.640910     5.555460     8.117236
H    -5.105784     5.699700    -5.592876
O    -4.498196     4.936298    -5.612905
H    -3.740221     5.151096    -6.177853
H     3.298937    -2.518417    -8.428050
O     3.211440    -3.051874    -7.627258
H     4.087529    -3.026130    -7.197418
H    -0.651668     8.834487    -2.272501
O    -0.529428     9.663356    -1.753821
H     0.233199     9.489176    -1.177287
H     2.075195    -0.903335     5.217561
O     1.504052    -1.429666     5.806831
H     1.596647    -1.082943     6.703490
H     5.221494    -2.014111    -5.682910
O     5.568575    -2.780276    -6.205049
H     5.294445    -3.570310    -5.687944
H     5.706025    -5.204640     4.695731
O     5.184583    -5.119833     5.522932
H     4.462657    -5.751397     5.437138
H    -3.966779     1.153039     7.011841
O    -3.775254     1.629066     7.855868
H    -4.651728     2.014214     8.116086
H    -1.843305     9.621904    -0.740664
O    -2.703774     9.495873    -0.265830
H    -3.315204     10.123278    -0.655071
H    -5.937119     4.695384    -2.935522
O    -6.845635     4.575701    -3.280060
H    -6.754291     3.873192    -3.956945
H     0.109601    -7.056494    -1.135916
O     0.573529    -7.492809    -0.388235
H    -0.105891    -7.687210     0.260494
H    -7.626325     3.796281    -1.971355
O    -7.888312     3.209443    -1.231364
H    -7.744272     2.300721    -1.570469
H     3.978447    -0.883784     6.995503
O     3.991280     0.080630     6.987947
H     4.803269     0.366405     6.554599
H     2.268644     5.803798    -1.173256
O     3.204262     5.514935    -1.055921
H     3.384014     4.971453    -1.845799
H     6.563907    -5.919339     0.682459
O     6.196079    -6.655344     1.217061
H     5.290726    -6.379233     1.442232
H    -3.863132     4.736493     7.785546
O    -3.295243     4.273905     7.127536
H    -3.489084     3.330445     7.237126
H     5.777122    -7.935596     0.148415
O     5.490209    -8.623021    -0.489089
H     4.660896    -8.298121    -0.883736
H    -0.551285     2.050036     7.700367
O    -1.183884     1.985899     6.964920
H    -2.052685     1.843546     7.360578
H    -6.371640    -0.115408     1.065954
O    -6.691838    -0.199147     0.153053
H    -7.610398    -0.470468     0.170968
H    -5.358992    -3.057663    -0.584044
O    -5.108017    -2.355680     0.042434
H    -5.677603    -1.582708    -0.145949
H     4.231468     5.663670     0.301758
O     4.555050     5.777498     1.214385
H     3.838134     6.304166     1.621037
H    -9.030848    -1.740365    -2.250704
O    -8.483705    -1.538410    -1.464314
H    -8.610654    -2.275166    -0.826717
H    -5.511799     3.476528    -5.523851
O    -6.029099     2.765776    -5.109211
H    -5.362291     2.180735    -4.695004
H     3.195411    -0.879399    -5.645956
O     2.339981    -1.000055    -6.112840
H     2.426107    -1.849182    -6.585674
H     8.129271    -1.338882    -6.017370
O     8.137996    -2.203071    -5.561060
H     7.281783    -2.602964    -5.812019
H     7.634387     1.001117    -6.298392
O     7.446875     0.152807    -6.712460
H     6.465497     0.102119    -6.748789
H    -7.848248    -3.687054     0.933403
O    -8.526697    -3.580846     0.248934
H    -8.427499    -4.340117    -0.352797
H    -2.400643     8.744398     1.297877
O    -2.249339     8.156661     2.051511
H    -1.479496     7.603168     1.828396
H    -4.436998     6.442880     3.501023
O    -4.607283     6.869112     2.644722
H    -3.843783     7.454881     2.504860
H     3.413747     3.456230    -3.568105
O     3.258518     4.425407    -3.476438
H     2.293640     4.488501    -3.583425
H    -6.102045    -1.599859    -3.437973
O    -6.185501    -2.179195    -2.654075
H    -6.969527    -1.871836    -2.145716
H     6.517046     1.051253     4.834739
O     6.108535     1.571190     5.543404
H     6.251549     2.496317     5.248999
H     1.374706     1.730260    -5.814973
O     1.177882     1.133938    -5.061915
H     1.544550     0.271783    -5.329934
H    -2.484411     2.972262     10.489518
O    -2.271070     2.064904     10.216345
H    -2.868555     1.864502     9.483932
H     7.535012    -0.655147     3.095484
O     6.861487     0.014444     3.274378
H     6.143874    -0.547584     3.678236
H    -5.644528    -8.047945    -0.695470
O    -4.910152    -8.116471    -0.048519
H    -4.914236    -7.298906     0.473053
H    -5.163900    -0.112788    -4.710546
O    -5.780653    -0.824865    -4.950532
H    -6.618795    -0.383513    -5.149232
H     1.904851    -0.190135    -7.506756
O     1.703074     0.280767    -8.351227
H     2.280768    -0.124162    -9.003595
H     4.888410    -1.384286    -9.294222
O     3.963297    -1.156253    -9.577303
H     3.943888    -1.274177    -10.526324
H     7.571787    -2.561795     4.212588
O     7.723302    -2.596667     3.253549
H     7.228049    -3.385537     2.978735
H     6.732057    -5.883397     2.695439
O     6.794645    -5.208030     3.396589
H     7.669885    -5.294810     3.814811
H    -1.815192     8.956030     3.501951
O    -1.568096     9.260723     4.400626
H    -2.417300     9.393195     4.855354
H    -7.377102     1.572747    -5.247216
O    -7.951882     0.828389    -5.002599
H    -8.853728     1.227647    -4.927041
H     6.941066    -1.072775    -8.393713
O     6.360555    -1.794881    -8.657734
H     6.131844    -2.244042    -7.825583
H    -1.664205     6.248113    -7.016936
O    -2.062791     5.423193    -6.743355
H    -1.814090     5.292084    -5.779634
H     0.005651     3.321476     9.029709
O     0.204274     2.402305     9.285936
H    -0.594447     2.137313     9.791477
H     6.768978    -2.770169    -2.696741
O     6.239904    -3.514472    -2.354564
H     6.708211    -4.325266    -2.600884
H    -4.062993    -3.066689    -4.937842
O    -4.217127    -2.954499    -5.902738
H    -4.764330    -2.161435    -5.959249
H     1.985279     2.195235     8.472886
O     2.651017     2.306867     7.784370
H     3.071121     1.435700     7.669309
H    -6.894169    -5.195708    -1.390568
O    -7.809545    -5.465704    -1.636574
H    -7.942766    -5.063293    -2.519673
H    -3.821268     5.264351     5.701835
O    -3.788556     6.033140     5.111541
H    -2.854739     6.327535     5.205566
H    -7.873226     0.093407    -1.962669
O    -7.383852     0.817288    -2.376151
H    -7.611336     0.805771    -3.329549
H     5.759421     0.036351     0.350825
O     5.543382     0.750142     0.983201
H     6.020706     0.505404     1.802035
H    -6.208963     3.319236     7.400318
O    -6.081365     2.801308     8.229237
H    -6.681207     2.039649     8.140649
H     2.292109    -8.064430    -0.832792
O     2.970116    -8.052358    -1.528083
H     2.745391    -8.766176    -2.141527
H    -2.729325    -3.955033    -6.190245
O    -1.975871    -4.521275    -5.957872
H    -1.699845    -4.229063    -5.060794
H    -5.636961     3.769234     5.313391
O    -6.285994     4.165787     5.930761
H    -6.123371     5.109973     5.916354
H    -1.003472    -7.106640    -3.155119
O    -0.531600    -6.436896    -2.626505
H     0.376003    -6.366873    -3.006976
H     4.451519     2.024539     5.140262
O     3.513630     2.272360     5.020069
H     3.124888     2.283060     5.900037
H     4.117033     4.669559     6.306244
O     4.214681     5.390262     5.679568
H     3.633754     5.157279     4.915897
H     2.768208     3.628431     3.928747
O     2.596630     4.569622     3.763742
H     2.473929     4.667905     2.796810
H     9.440483     0.122522    -1.050475
O     8.663241     0.328838    -0.518048
H     8.467462    -0.514769    -0.070331
H    -2.097270     5.331682     10.656522
O    -2.818730     4.702634     10.887919
H    -3.038098     4.880489     11.802724
H     7.983375    -2.999148     0.336872
O     8.405786    -2.154398     0.597164
H     8.337001    -2.154070     1.559188
H     5.323781     3.706754     3.640955
O     6.042083     3.985743     4.253523
H     5.636904     4.707104     4.768724
H    -4.205064     5.032196     9.789853
O    -4.837820     5.183066     9.067587
H    -5.449381     4.434172     9.064616
H    -6.997154    -3.472300    -3.480342
O    -7.617203    -4.084620    -3.928848
H    -7.095538    -4.526566    -4.630699
H     0.031044     6.140870     10.777258
O    -0.833473     6.472261     10.529801
H    -0.717820     6.902305     9.663234
H     2.602408     1.504677    -4.094632
O     3.480911     1.857610    -3.858766
H     3.800837     1.345017    -3.085115
H    -6.964962    -0.209738     7.224304
O    -7.474057     0.568553     7.504435
H    -8.096797     0.751699     6.799866
H    -2.728145    -9.865700    -0.820979
O    -2.665229    -8.924111    -0.981181
H    -3.571297    -8.557762    -0.741020
H    -10.056670     3.080631    -4.895599
O    -10.173944     2.163241    -4.614728
H    -10.389727     2.247478    -3.665017
H    -2.058127    -3.015003     4.621643
O    -2.933038    -3.455299     4.691268
H    -2.926347    -4.072977     3.934805
H    -0.165742    -7.972839     2.495032
O     0.660383    -7.762761     2.943610
H     1.378949    -8.058019     2.356841
H     6.712262    -2.364714     6.404728
O     7.164469    -3.072736     5.941189
H     6.535590    -3.808573     5.900899
H    -5.263849    -1.993793     6.949601
O    -5.940373    -1.496202     6.465490
H    -5.923316    -1.873091     5.556178
H     0.849172     3.040315    -7.107068
O     1.767048     2.710478    -7.163776
H     1.753527     1.962133    -7.788520
H    -3.950969     8.766155     6.676977
O    -3.947739     8.764206     5.719623
H    -4.072882     7.836726     5.451543
H    -2.051657     10.321572    -2.733243
O    -2.953230     10.503573    -3.035187
H    -2.881027     11.136394    -3.749054
H     9.420287    -4.048766     4.056957
O     9.142591    -4.726300     4.681028
H     8.710812    -4.254163     5.403899
H    -0.719297    -5.989904    -5.831538
O    -0.015698    -6.556324    -5.498122
H     0.819681    -6.094248    -5.715391
H     1.829880     8.287379     0.667682
O     1.528710     8.608669    -0.210607
H     2.344405     8.644073    -0.739922
H     3.511599     2.938244    -6.653106
O     4.339117     2.647326    -6.244315
H     4.094134     2.374964    -5.334607
H     3.742566     7.134269    -1.222006
O     3.947406     8.070631    -1.435809
H     4.317351     8.013676    -2.328814
H     4.408947     0.002302    -7.902400
O     4.786712     0.147770    -7.033194
H     4.604624     1.079559    -6.788457
H     6.063553     2.044997    -0.523526
O     6.636156     2.141414    -1.294398
H     7.423533     1.618609    -1.071657
H     6.698707    -8.420687    -1.594169
O     7.335498    -8.210228    -2.330120
H     7.701535    -9.044673    -2.618266
H    -5.286334    -5.782024    -5.400467
O    -5.903741    -5.110507    -5.715835
H    -5.352749    -4.342035    -5.952310
H     0.688027     7.185659     7.607390
O    -0.213514     7.213105     7.966239
H    -0.768926     7.227005     7.148434
H    -8.883898    -2.828253    -4.097313
O    -9.404996    -2.020000    -3.930451
H    -9.118662    -1.355086    -4.560432
H    -2.396106    -5.980053    -2.135266
O    -3.274654    -5.694952    -2.403907
H    -3.461136    -6.069370    -3.289877
H    -2.971696    -5.892689    -5.401326
O    -3.571572    -6.502800    -4.929398
H    -3.089245    -7.322714    -4.762217
H    -1.378479     3.733792    -6.976838
O    -0.837920     2.978393    -6.705755
H    -1.074341     2.192882    -7.255251
H    -0.189946     0.424857    -8.208304
O    -1.086514     0.659290    -7.925831
H    -1.261275     0.136524    -7.127222
H    -10.412375     4.058682    -2.731831
O    -10.480017     3.280388    -2.163221
H    -9.650427     3.254029    -1.654600
H     4.465311     4.180106     1.771420
O     4.418235     3.230489     2.040184
H     5.276592     2.881168     1.754998
H     6.498667     1.408430    -4.206535
O     6.197488     0.780006    -3.515996
H     6.222109     1.272080    -2.669037
H     9.644163    -2.208183    -0.915082
O     9.922351    -1.991783    -1.813670
H     9.122567    -1.655755    -2.259690
H     9.983168    -3.306674    -3.086071
O     9.716939    -3.959904    -3.759915
H     9.322553    -3.453844    -4.481002
H    -7.684479    -8.567852    -1.659020
O    -6.946669    -7.973484    -1.787373
H    -7.324430    -7.060464    -1.778018
H     4.171820     6.089983    -3.811654
O     4.832627     6.791926    -3.728822
H     5.668360     6.338168    -3.587404
H     0.113464    -8.162393    -5.205641
O     0.137664    -9.145332    -5.073541
H     0.288688    -9.509134    -5.945993
H    -2.317897    -8.665549    -2.706807
O    -2.084305    -8.402358    -3.616579
H    -1.436841    -9.020310    -3.974668
H     2.198868    -10.807644    -3.484135
O     2.152872    -9.853100    -3.460154
H     1.367733    -9.582378    -3.986861
H     6.847144     3.339194    -4.561118
O     6.907645     2.663563    -5.264904
H     6.113500     2.796028    -5.804665
H    -3.555400    -3.712040     7.728123
O    -3.669301    -2.924106     7.198187
H    -3.418006    -3.163212     6.279793
H    -0.623665    -3.354443    -6.716248
O     0.006409    -2.622933    -6.724224
H    -0.475164    -1.847363    -6.382380
H     0.648014     0.474020     8.760920
O     0.657335    -0.240873     8.120523
H    -0.264522    -0.530929     8.032031
H    -5.824660     7.374823    -4.247931
O    -6.327465     6.755891    -4.808998
H    -6.613791     6.024626    -4.217878
H    -4.270218     9.110797    -3.259942
O    -4.806125     8.314860    -3.153226
H    -4.397317     7.835232    -2.414563
H    -9.701117     5.802563    -4.643644
O    -10.234366     4.997827    -4.479962
H    -11.114828     5.198225    -4.799437
H     2.778651     6.528769     6.144557
O     1.819317     6.622411     6.245381
H     1.475059     5.709076     6.142670
H     4.810213     8.559542     0.091999
O     5.126620     8.561650     1.013320
H     5.529065     7.694823     1.145332
H     4.157943    -7.416281    -4.331498
O     3.400571    -7.702071    -4.874243
H     3.120209    -8.542658    -4.497373
H     0.381306     8.670669     4.240042
O     1.060971     8.027330     4.013914
H     1.285679     7.533941     4.828344
H     5.250499     4.199540    -3.143766
O     6.211801     4.167271    -3.092627
H     6.419381     3.588311    -2.340511
H    -2.568804    -1.533516     7.580377
O    -2.058953    -0.740176     7.801321
H    -2.685755    -0.113960     8.173929
H    -9.018597     7.942739    -4.144353
O    -8.954925     7.358145    -4.901087
H    -7.997644     7.194209    -5.035568
H     3.544082    -8.968879     1.101446
O     2.866890    -8.337953     1.350955
H     3.340626    -7.531752     1.630017
H     3.586072     8.188514     1.834094
O     2.791466     7.629873     1.946517
H     2.349479     7.859749     2.776430
N     7.271465     3.314303     1.667399
H     7.277174     3.740653     2.536425
H     7.863948     2.561148     1.746262
