27
Coordinates from ORCA-job grain_mol_opt.QMRegion
  H   -4.55887159745327     -5.24995574373712     -1.59589973827580
  O   -5.28760351483568     -4.92968260007152     -1.02657208803360
  H   -5.01666694193848     -5.25659361556126     -0.14179975568654
  H   -5.18688403225656     -5.24855736895140      1.86299936444482
  O   -4.50453386808482     -5.83577465400173      1.47630674295610
  H   -3.66886525445034     -5.37877231799067      1.72720914027345
  H   -5.83328727364443     -3.27415888816515      1.33376385378670
  O   -6.27454013115899     -3.80855799031872      2.05044214841266
  H   -6.03323778984590     -3.32418668840064      2.87206059903310
  H   -5.37003666488586     -3.10093568000590     -0.64462509581653
  O   -5.18100107272929     -2.42609245284881      0.03485591897667
  H   -5.72309459914619     -1.63455390304636     -0.17595376623092
  H   -7.98388733452950     -3.53348709303873      0.83569680741802
  O   -8.72090370971262     -3.59622039783144      0.21184837085181
  H   -8.43431377120356     -4.25641562261073     -0.46693147461646
  H   -5.75911197908273     -8.22135124239889     -0.23105071885194
  O   -4.85920585101371     -8.30711119578065      0.15053381684318
  H   -4.74325443585160     -7.46920417320482      0.62463740693887
  H   -6.90020489036858     -5.27284965928520     -1.50225786852059
  O   -7.86565111724914     -5.37756399823931     -1.67223852334317
  H   -7.97116638031628     -5.00590387124375     -2.57609739068374
  H   -7.73383967018747     -7.38024251820733      0.47165586580986
  O   -7.50402157608678     -7.84491302793725     -0.35372051400014
  H   -7.75159160651200     -7.19588990667180     -1.03421209650137
  O   -8.18122568881840     -6.13845176198588      1.93771035200623
  H   -7.52690132128727     -5.44774834567374      2.11787801132858
  H   -8.91748681097827     -5.63277882366900      1.57088741313875
