39
Coordinates from ORCA-job grain_mol_opt.QMRegion
  H   -3.43977467855763      6.42347113761197     -0.47145243067876
  O   -3.27021603816847      7.08405724852465     -1.20400443753640
  H   -3.09023505092067      7.93532595352375     -0.75253912683777
  H   -3.76552212109562      5.82380124369240     -2.75057944902596
  O   -4.20119184272569      5.01428145627415     -3.04068054335204
  H   -3.97399078472624      4.90896835184386     -3.99333206606228
  H   -3.14817242568843      4.98518844143742      1.14973784147891
  O   -3.92751251917677      5.35517802293229      0.67131798218251
  H   -4.34611114998535      5.90950662338190      1.37894906028184
  H   -5.08169580102922      4.11880383147053      0.05205916261370
  O   -5.54175734645822      3.26723714273321     -0.03595184933334
  H   -6.46604886402010      3.35449641875329     -0.35240105247289
  H   -5.00216978400140      5.60406788081489     -5.76081119927702
  O   -4.42870973043226      4.80772679080769     -5.75127908482332
  H   -3.67430058088174      4.97458176425262     -6.34153978411011
  H   -5.94489108942366      4.73199131131436     -3.06638052932240
  O   -6.85998192947371      4.59203815769596     -3.39615462154124
  H   -6.73034220400887      3.85343247904255     -4.04109862060238
  H   -7.63391831361081      3.70812370552868     -2.07324051177329
  O   -7.90216602163949      3.13960730802211     -1.31651537061874
  H   -7.72609096022976      2.23077308908654     -1.66686918036380
  H   -10.64624963691542      3.91582864929991     -2.67002215305422
  O   -10.63714775172933      3.09545204210448     -2.14915266969487
  H   -9.75552391594281      3.09830328117768     -1.73536506321177
  H   -5.74490821443166      7.32809196816869     -4.52793568190163
  O   -6.24002086602621      6.72173675664658     -5.10513974862159
  H   -6.57656632959337      6.03466054470743     -4.48416667725546
  H   -4.33151353054775      9.16707139145512     -3.14815395884234
  O   -4.87012419400792      8.36325768929631     -3.05522959210747
  H   -4.39092104470840      7.84867690381843     -2.37198356911310
  H   -9.81728050350089      5.76397014679793     -4.41871798323632
  O   -10.37128293475265      4.94842491381863     -4.42045850213296
  H   -11.18832180184329      5.20707626965713     -4.85410650323017
  H   -8.62195754129672      7.48772148532154     -3.52703375330575
  O   -8.99713191178475      7.30527591808635     -4.40906160371189
  H   -8.20206923914579      7.27358496583232     -4.96364013192945
  O   -7.52984054708750      7.90046182931783     -2.01756915765097
  H   -6.64033891050147      8.19926986812789     -2.27829264004687
  H   -7.38139728350912      7.22993508776507     -1.34379246488425
