45

H     3.370829     2.598919     0.325512
O     3.257618     2.650990    -0.637983
H     3.541291     1.774252    -0.975466
H     2.190538     4.710550     0.403753
O     1.715151     4.679812     1.243578
H     1.320689     3.768870     1.301801
H     2.204777     5.875643    -1.287776
O     3.134071     5.560705    -1.141347
H     3.328516     5.035573    -1.946855
H     4.208762     5.612923     0.280682
O     4.601933     5.684645     1.172040
H     3.983862     6.303714     1.610800
H     6.503942     1.078151     4.851188
O     6.098597     1.627998     5.539809
H     6.253109     2.539430     5.207006
H     7.562868    -0.629065     3.152321
O     6.871181     0.017674     3.341027
H     6.160759    -0.565652     3.726824
H     5.809487     0.187507     0.349439
O     5.570931     0.783913     1.083312
H     6.050321     0.444024     1.868861
H     2.712850     3.586742     4.020579
O     2.552346     4.526905     3.828720
H     2.525514     4.617474     2.857244
H     9.406027     0.030925    -1.130120
O     8.596595     0.243355    -0.651659
H     8.423752    -0.557726    -0.123741
H     5.321038     3.633334     3.567879
O     6.033673     3.981928     4.142706
H     5.587540     4.678533     4.662586
H     6.583519     2.660744    -0.477822
O     6.821846     2.280378    -1.335032
H     7.511954     1.625694    -1.115565
H     4.417050     3.973080     1.731034
O     4.281697     3.058791     2.053727
H     4.976065     2.528444     1.630552
H     4.653965     8.639696    -0.008932
O     4.981861     8.801822     0.903336
H     5.603643     8.077683     1.038803
H     5.299771     4.141397    -3.311231
O     6.256712     4.259497    -3.257119
H     6.543313     3.663705    -2.536449
N     6.970794     4.066314     1.020675
H     6.363713     4.820723     1.075231
H     7.174787     3.889924     1.946423
