603

H     0.203823     3.019115    -0.682382
O     0.729698     2.354171    -1.176701
H     1.667785     2.485491    -0.901284
H    -0.060072    -1.326973     3.139795
O     0.327967    -0.623539     2.596519
H    -0.152756     0.187339     2.831892
H    -2.394054     2.387637    -0.544798
O    -2.183940     1.917220     0.279314
H    -2.191633     0.969679     0.053210
H    -4.654776     0.511648     2.168316
O    -4.969910    -0.422693     2.176178
H    -4.455566    -0.897367     1.515001
H     0.077023    -0.324736     0.941600
O    -0.123270    -0.085206     0.015926
H     0.217263     0.811164    -0.102879
H    -0.132850    -3.598397     3.761521
O    -0.414433    -2.769637     4.183675
H     0.230621    -2.599668     4.886543
H    -4.884093     2.495643     1.319090
O    -4.244603     2.086530     1.933892
H    -3.400648     2.072959     1.422699
H    -3.248146     3.875065    -2.218983
O    -2.509187     3.279903    -1.988196
H    -2.147695     2.995449    -2.847728
H    -0.095962    -3.821484     0.492962
O     0.239951    -2.999432     0.907119
H    -0.549747    -2.518707     1.220199
H    -2.361140    -1.565979     2.454679
O    -2.173073    -2.029989     1.612553
H    -2.427681    -1.440053     0.884248
H     2.093093    -1.448545    -1.130137
O     2.324367    -1.699556    -0.212275
H     1.537481    -2.133791     0.169363
H    -1.385055     1.802956     1.904099
O    -1.479783     1.403324     2.778836
H    -1.466809     2.113943     3.445656
H     0.232572    -2.716716    -1.583421
O    -0.524533    -2.106204    -1.638253
H    -0.347812    -1.381684    -1.001652
H    -3.406952    -2.954606    -0.409441
O    -2.697371    -3.444107    -0.845378
H    -1.981950    -2.814161    -1.049811
H     2.781634     0.120730     2.927651
O     2.880020    -0.062444     3.889295
H     2.967733     0.829992     4.295332
H    -3.540868     6.353387    -0.545963
O    -3.304807     7.017888    -1.245099
H    -3.166264     7.862811    -0.773419
H     3.911084     0.582671     1.182355
O     2.960868     0.398003     1.296477
H     2.727378    -0.355243     0.716331
H    -5.769661     0.810293    -1.618597
O    -4.860594     1.140558    -1.492154
H    -4.974068     1.968040    -0.979369
H    -1.222661     5.374921     2.208078
O    -1.844866     4.625709     2.089559
H    -1.921281     4.204944     2.951211
H     3.495065     2.761353     0.424495
O     3.248194     2.719449    -0.514999
H     3.584632     1.878737    -0.866624
H     1.522003    -4.703183    -2.263494
O     1.583736    -3.923522    -1.692751
H     2.377976    -3.461627    -2.042577
H    -0.903029    -0.099549    -2.556642
O    -0.274800     0.558351    -2.881153
H    -0.015289     1.139642    -2.143048
H     1.729511    -4.694260    -0.192838
O     1.839842    -5.330808     0.548859
H     1.377357    -6.143891     0.251727
H    -1.194351    -3.289345    -2.895308
O    -1.025621    -3.972723    -3.557356
H    -0.901251    -4.820682    -3.087621
H    -2.786038     3.276696     4.697705
O    -1.804890     3.277958     4.664504
H    -1.511096     2.875607     5.500183
H     0.950301     5.017963     4.075802
O     0.003178     5.246232     4.127328
H    -0.465514     4.440601     4.383522
H    -1.698237    -4.678895    -0.391614
O    -0.929311    -5.202076    -0.089726
H    -1.273398    -5.911617     0.463906
H    -3.924893     5.807190    -2.601961
O    -4.272512     4.972766    -2.934398
H    -4.115006     4.940331    -3.902181
H    -2.404215    -3.717051     1.919266
O    -2.422969    -4.619770     2.297591
H    -1.482264    -4.860833     2.430255
H    -4.665296    -3.007307    -2.916694
O    -3.816370    -3.230737    -3.334320
H    -3.471641    -4.023385    -2.878470
H     0.341739     1.356456     4.608403
O     0.843410     2.119997     4.275852
H     0.890465     2.777217     4.984423
H    -4.575018    -5.137336    -1.541548
O    -5.313729    -4.848170    -0.962282
H    -5.063829    -5.190981    -0.080384
H     2.369624    -6.480643    -4.057061
O     2.032906    -6.151379    -3.203958
H     2.465046    -6.727089    -2.541215
H     0.496463    -3.389332    -4.019044
O     1.295979    -3.013238    -4.439645
H     0.977451    -2.642842    -5.288636
H     1.979893    -1.764327     2.971128
O     2.139450    -2.694127     2.753060
H     1.455458    -2.910653     2.084752
H    -2.989276    -1.827994    -3.226607
O    -2.572083    -0.939810    -3.159159
H    -3.229646    -0.296107    -3.478024
H    -3.198484     4.947426     1.074916
O    -3.981568     5.318105     0.620324
H    -4.399241     5.873513     1.327091
H     0.877202     2.238672     2.586116
O     0.978920     2.236127     1.614981
H     1.708621     1.616010     1.450567
H     0.181802     5.645143    -0.758121
O     0.700741     6.310059    -1.265690
H     0.839688     7.109343    -0.708342
H     0.325247     7.019127     2.593320
O    -0.034730     6.638649     1.774973
H     0.632228     5.971091     1.513075
H    -2.471427     0.186796     3.329215
O    -2.691798    -0.628781     3.832262
H    -1.931468    -0.667515     4.454465
H    -0.890068     0.525891     6.015897
O    -0.613725     0.009485     5.240377
H     0.102299    -0.591897     5.526126
H     0.736927    -5.010891     1.962253
O     0.196042    -5.121423     2.767653
H     0.340213    -6.044085     3.034643
H    -2.079935    -8.091128     0.421282
O    -1.740197    -7.622464     1.221972
H    -2.523151    -7.323228     1.690086
H    -0.391223     6.852408    -2.323960
O    -1.139017     7.269999    -2.823434
H    -1.928849     7.139711    -2.260624
H    -1.118413     4.290404     0.570498
O    -0.745228     4.354715    -0.325262
H    -1.450045     4.110604    -0.958583
H    -4.411193     2.710427     3.497290
O    -4.412204     2.879398     4.462040
H    -4.491754     1.995356     4.869760
H     2.045801    -3.596599     4.230841
O     1.982221    -4.068682     5.084128
H     2.488011    -3.531620     5.715225
H     4.712113    -3.192102     0.829653
O     4.553063    -3.113891    -0.136948
H     3.691569    -2.641525    -0.220354
H    -2.704333    -0.771634    -1.364220
O    -3.037101    -0.504906    -0.490926
H    -3.836712     0.021230    -0.699318
H    -1.594141    -0.772575    -4.642083
O    -1.090057    -0.553511    -5.446944
H    -0.381284     0.044358    -5.161413
H     1.817585    -1.717456    -3.386106
O     1.906781    -0.969413    -2.763875
H     1.127100    -0.395990    -2.895012
H     3.685290    -3.126164     2.539536
O     4.645367    -3.351065     2.467769
H     4.701882    -4.311968     2.590701
H     3.459612    -6.127069     3.106424
O     3.816579    -5.919704     2.208420
H     3.076572    -5.581629     1.663448
H    -3.332883     1.589739    -4.189326
O    -4.177021     1.116193    -3.999975
H    -4.395031     1.260470    -3.043183
H    -5.084912     4.113862     0.059043
O    -5.520948     3.246674    -0.047547
H    -6.451417     3.364174    -0.328814
H     6.752515    -1.168655    -1.366669
O     5.978932    -1.021835    -0.815997
H     5.562839    -1.891552    -0.619553
H     4.620871    -3.161313    -2.480473
O     3.753550    -2.991751    -2.898298
H     3.759524    -3.611631    -3.653643
H     4.450798    -2.300210     5.612756
O     4.109511    -2.767668     6.405455
H     4.446887    -3.671739     6.322069
H    -0.771617     6.312571     5.075181
O    -1.371277     6.885284     5.613431
H    -1.387396     7.763006     5.173443
H     4.713232    -0.129865    -1.471174
O     3.944050     0.410073    -1.734304
H     3.254407    -0.193209    -2.065373
H    -0.743657     4.513134    -4.040218
O    -1.528422     5.053458    -4.248052
H    -1.380407     5.920067    -3.824064
H     0.662490     3.196661    -2.661760
O     0.668060     3.574630    -3.569885
H     0.720323     2.812094    -4.156182
H    -5.355756    -5.211944     1.776548
O    -4.658814    -5.807029     1.422373
H    -3.814638    -5.401281     1.699187
H     7.904599    -1.667706    -4.037890
O     7.645168    -1.356478    -3.138078
H     7.154651    -0.514707    -3.293617
H     3.738861    -5.064327    -5.303318
O     4.499798    -4.687806    -4.822126
H     4.885992    -5.398098    -4.276361
H    -3.776511    -0.017969     4.921578
O    -4.380720     0.442601     5.553671
H    -5.037826    -0.219061     5.844294
H     3.498846    -5.944164    -0.537451
O     4.372213    -5.692330    -0.850362
H     4.443065    -4.729974    -0.705989
H     5.018126    -0.325035    -4.165112
O     4.485411    -1.036949    -4.557316
H     4.161705    -1.624311    -3.841186
H    -1.163578     1.559546    -3.943984
O    -1.816575     2.177307    -4.330597
H    -1.458147     2.512292    -5.175245
H     4.923190    -6.314549    -2.329416
O     5.260708    -6.633974    -3.195339
H     6.078637    -7.114582    -3.007766
H     8.775224    -5.069191    -2.927284
O     8.085115    -5.489621    -2.369886
H     8.122200    -6.446768    -2.473374
H     2.331827     4.713564     0.452125
O     1.751264     4.692442     1.222219
H     1.397988     3.770373     1.298525
H    -4.397238    -2.673300     4.212521
O    -5.292466    -2.336802     4.008570
H    -5.157251    -1.553057     3.436431
H    -5.824977    -3.232409     1.296400
O    -6.293315    -3.786310     1.963901
H    -6.100825    -3.353723     2.815471
H     1.678501     3.450078     6.860089
O     1.053986     3.964210     6.326628
H     0.269906     4.113116     6.897718
H     5.017449    -2.170940     3.608173
O     5.034775    -1.452902     4.272968
H     4.220861    -0.900031     4.116370
H     2.417140    -5.591361     4.821654
O     2.802169    -6.472462     4.561545
H     2.060300    -7.056537     4.381649
H     2.296071    -4.506610    -6.805766
O     2.127031    -4.998570    -5.992400
H     1.858950    -4.312550    -5.333827
H     6.467418    -4.092953    -0.512331
O     7.222983    -4.492064    -0.049553
H     7.731833    -4.912606    -0.770503
H    -1.738295     4.457572     7.696583
O    -0.840417     4.558638     8.083356
H    -0.663052     5.518402     8.109171
H    -5.123220     5.668714    -5.602239
O    -4.513541     4.906936    -5.623623
H    -3.755809     5.125376    -6.187567
H     3.313721    -2.513274    -8.447688
O     3.225566    -3.047446    -7.647502
H     4.101366    -3.022742    -7.216823
H    -0.679832     8.814120    -2.274867
O    -0.560856     9.642258    -1.754606
H     0.201621     9.470011    -1.177393
H     2.076773    -0.927069     5.202232
O     1.504323    -1.454575     5.788481
H     1.597837    -1.111369     6.686457
H     5.230787    -2.010297    -5.700550
O     5.580467    -2.774124    -6.223743
H     5.309024    -3.566238    -5.707606
H     5.722132    -5.214634     4.673562
O     5.199206    -5.133049     5.500195
H     4.479968    -5.767455     5.412588
H    -3.973833     1.106475     6.995126
O    -3.784634     1.581872     7.839814
H    -4.662409     1.963566     8.100400
H    -1.875981     9.594765    -0.742454
O    -2.736558     9.464169    -0.269293
H    -3.349587     10.091187    -0.656592
H    -5.951671     4.657785    -2.947165
O    -6.859846     4.534595    -3.291580
H    -6.765804     3.834181    -3.970043
H     0.136084    -7.080673    -1.163209
O     0.604860    -7.505123    -0.409574
H    -0.079620    -7.716393     0.228840
H    -7.638298     3.751586    -1.984729
O    -7.899316     3.161963    -1.246483
H    -7.750792     2.254869    -1.587134
H     3.981675    -0.902255     6.979224
O     3.986649     0.062007     6.972041
H     4.798117     0.355493     6.541298
H     2.248758     5.792563    -1.178316
O     3.185336     5.503734    -1.063596
H     3.364987     4.965201    -1.857213
H     6.583820    -5.920630     0.659870
O     6.218041    -6.658481     1.193046
H     5.311705    -6.385573     1.418429
H    -3.882958     4.688828     7.774523
O    -3.314190     4.229344     7.115080
H    -3.503264     3.284899     7.224463
H     5.802347    -7.938496     0.120590
O     5.519248    -8.625273    -0.519088
H     4.686732    -8.305194    -0.911464
H    -0.560848     2.014140     7.686086
O    -1.193512     1.948884     6.950583
H    -2.061489     1.802482     7.346382
H    -6.366886    -0.161761     1.043172
O    -6.690287    -0.249855     0.131362
H    -7.609981    -0.516323     0.154542
H    -5.346709    -3.100822    -0.614364
O    -5.102530    -2.402706     0.017163
H    -5.672633    -1.628833    -0.167087
H     4.307449     5.579929     0.323212
O     4.640076     5.681030     1.228814
H     3.942880     6.187416     1.681227
H    -9.025323    -1.790723    -2.272115
O    -8.477765    -1.589338    -1.486434
H    -8.602283    -2.326974    -0.849956
H    -5.522177     3.444321    -5.536986
O    -6.036460     2.729961    -5.124520
H    -5.367029     2.147928    -4.710465
H     3.200655    -0.881868    -5.662186
O     2.345926    -1.003614    -6.130024
H     2.435307    -1.851926    -6.604179
H     8.136546    -1.323740    -6.033303
O     8.147872    -2.188260    -5.578057
H     7.293433    -2.591508    -5.829476
H     7.634466     1.015557    -6.310383
O     7.449346     0.167495    -6.725822
H     6.468260     0.113237    -6.762349
H    -7.835298    -3.735325     0.910319
O    -8.509683    -3.640591     0.219281
H    -8.402365    -4.403951    -0.372837
H    -2.430799     8.712059     1.294057
O    -2.278779     8.122874     2.046321
H    -1.506011     7.573233     1.823789
H    -4.460558     6.399884     3.492621
O    -4.631858     6.826168     2.636421
H    -3.870694     7.415449     2.498335
H     3.402199     3.450937    -3.578383
O     3.244775     4.419497    -3.483867
H     2.279814     4.480418    -3.592397
H    -6.094347    -1.638616    -3.459548
O    -6.182506    -2.223951    -2.680161
H    -6.962230    -1.912318    -2.167405
H     6.470419     1.053182     4.737783
O     6.073759     1.589904     5.440894
H     6.258879     2.509512     5.151190
H     1.371557     1.721545    -5.828275
O     1.177378     1.123725    -5.075617
H     1.546414     0.262828    -5.345349
H    -2.499363     2.925401     10.476371
O    -2.283595     2.018903     10.202236
H    -2.879533     1.817989     9.468792
H     7.637332    -0.487675     3.080297
O     6.885210     0.085185     3.249574
H     6.194822    -0.518643     3.627167
H    -5.795940    -8.102656    -0.311591
O    -5.085135    -8.229095     0.348119
H    -4.993221    -7.369640     0.798939
H    -5.161493    -0.145076    -4.727231
O    -5.777026    -0.858229    -4.968363
H    -6.615434    -0.417304    -5.167630
H     1.909298    -0.193927    -7.522769
O     1.705901     0.278433    -8.366193
H     2.285360    -0.122985    -9.019227
H     4.898164    -1.373590    -9.310617
O     3.972663    -1.147015    -9.594063
H     3.953765    -1.266076    -10.542959
H     7.581008    -2.562354     4.193725
O     7.728893    -2.595957     3.234325
H     7.239157    -3.388567     2.960719
H     6.751019    -5.886625     2.672787
O     6.811112    -5.212129     3.375005
H     7.686795    -5.296013     3.793078
H    -1.847590     8.922127     3.498876
O    -1.602108     9.226710     4.397837
H    -2.451881     9.354983     4.852689
H    -7.379967     1.533081    -5.264167
O    -7.952666     0.786246    -5.021616
H    -8.855671     1.183620    -4.945208
H     6.949459    -1.058453    -8.408415
O     6.370144    -1.780959    -8.673893
H     6.143306    -2.233313    -7.842889
H    -1.683469     6.231140    -7.024421
O    -2.079067     5.404436    -6.751842
H    -1.830090     5.273134    -5.788312
H    -0.009144     3.284821     9.018776
O     0.191216     2.365557     9.272971
H    -0.606539     2.097486     9.778169
H     6.781061    -2.764537    -2.712122
O     6.252619    -3.510656    -2.372626
H     6.723409    -4.320016    -2.619654
H    -4.053743    -3.087135    -4.964495
O    -4.214614    -2.974622    -5.929185
H    -4.754374    -2.176274    -5.982416
H     1.975272     2.165398     8.461061
O     2.639064     2.281699     7.771606
H     3.064922     1.413305     7.655159
H    -6.823880    -5.282215    -1.373828
O    -7.740353    -5.567923    -1.640353
H    -7.845460    -5.127308    -2.515277
H    -3.841410     5.220547     5.691836
O    -3.811365     5.989836     5.101960
H    -2.878578     6.287733     5.197220
H    -7.873540     0.048367    -1.982140
O    -7.384576     0.772182    -2.395600
H    -7.612896     0.762862    -3.348806
H     5.847447     0.138017     0.408410
O     5.622484     0.858046     1.030095
H     6.132707     0.663278     1.843193
H    -6.224030     3.264385     7.385639
O    -6.095008     2.745718     8.213840
H    -6.691978     1.982030     8.124175
H     2.311347    -8.076347    -0.867458
O     2.996672    -8.064041    -1.556183
H     2.774293    -8.775013    -2.174240
H    -2.710688    -3.941596    -6.221112
O    -1.963834    -4.517947    -5.992335
H    -1.686458    -4.247238    -5.087688
H    -5.652048     3.719492     5.300319
O    -6.303933     4.112767     5.916732
H    -6.142685     5.057259     5.906141
H    -0.898601    -7.164606    -3.119549
O    -0.459940    -6.449507    -2.624125
H     0.445121    -6.353618    -3.016878
H     4.443183     2.013037     5.126643
O     3.500870     2.249836     5.006315
H     3.115851     2.262233     5.887939
H     4.097208     4.650613     6.302377
O     4.175155     5.382314     5.685749
H     3.609368     5.140432     4.913951
H     2.758635     3.609482     3.921810
O     2.577130     4.549028     3.756698
H     2.458453     4.648140     2.790274
H     9.404625     0.234214    -1.071346
O     8.598023     0.394256    -0.577773
H     8.424275    -0.426150    -0.086386
H    -2.119977     5.285687     10.647257
O    -2.839928     4.654213     10.877130
H    -3.059393     4.829158     11.792481
H     7.995159    -2.992914     0.320959
O     8.413017    -2.144958     0.577855
H     8.346225    -2.142098     1.540108
H     5.364628     3.667117     3.526291
O     6.019353     3.934736     4.193114
H     5.603291     4.650250     4.695597
H    -4.226060     4.980992     9.779078
O    -4.859363     5.130177     9.056845
H    -5.468012     4.378959     9.053070
H    -6.964864    -3.438782    -3.465747
O    -7.565249    -4.080634    -3.915542
H    -7.044033    -4.410048    -4.680607
H     0.005156     6.101758     10.770614
O    -0.860374     6.430450     10.523025
H    -0.745346     6.862364     9.657277
H     2.598337     1.497179    -4.109180
O     3.474740     1.853871    -3.869734
H     3.797165     1.338676    -3.099968
H    -6.967069    -0.267459     7.204407
O    -7.479251     0.508508     7.485215
H    -8.102215     0.690600     6.780600
H    -2.685047    -9.787911    -0.585243
O    -2.795414    -8.863947    -0.824139
H    -3.700298    -8.626294    -0.477707
H    -10.064870     3.029615    -4.913639
O    -10.178481     2.111850    -4.632303
H    -10.394986     2.196508    -3.682562
H    -2.049274    -3.050475     4.600135
O    -2.923646    -3.492332     4.667640
H    -2.911707    -4.111339     3.911830
H    -0.142351    -7.996886     2.460595
O     0.681899    -7.786641     2.914348
H     1.401798    -8.078776     2.328068
H     6.719448    -2.372766     6.386406
O     7.172813    -3.079893     5.922652
H     6.545817    -3.817200     5.881720
H    -5.259534    -2.045389     6.927326
O    -5.937637    -1.549671     6.443269
H    -5.918862    -1.925729     5.533915
H     0.842283     3.032532    -7.118766
O     1.761126     2.705514    -7.174715
H     1.750903     1.958209    -7.800961
H    -3.982771     8.720581     6.672031
O    -3.981031     8.719420     5.714655
H    -4.101858     7.791535     5.446017
H    -2.085796     10.296976    -2.734001
O    -2.987804     10.475403    -3.036701
H    -2.917692     11.110998    -3.748301
H     9.433259    -4.043928     4.037817
O     9.157339    -4.723695     4.660292
H     8.723922    -4.254055     5.383851
H    -0.695540    -6.002197    -5.858719
O     0.008168    -6.569178    -5.529497
H     0.843125    -6.105533    -5.741034
H     1.804413     8.268601     0.668052
O     1.500496     8.590395    -0.209380
H     2.315481     8.632004    -0.739151
H     3.504294     2.939417    -6.663754
O     4.332692     2.652125    -6.254148
H     4.087811     2.375575    -5.345979
H     3.718267     7.127908    -1.225932
O     3.920447     8.064707    -1.438250
H     4.290885     8.010880    -2.331219
H     4.413366     0.007231    -7.916822
O     4.789174     0.153993    -7.046960
H     4.603764     1.084803    -6.802270
H     6.035013     1.942913    -0.476381
O     6.600220     2.139906    -1.237301
H     7.426278     1.662600    -1.043551
H     6.727419    -8.417023    -1.621461
O     7.365134    -8.203468    -2.356028
H     7.730489    -9.037033    -2.647598
H    -5.342616    -5.692853    -5.687384
O    -5.949256    -4.988330    -5.958008
H    -5.342789    -4.233411    -6.117230
H     0.659796     7.153584     7.602301
O    -0.242151     7.177615     7.961111
H    -0.797029     7.191018     7.143212
H    -8.869711    -2.879255    -4.125011
O    -9.392905    -2.074415    -3.955571
H    -9.111230    -1.404822    -4.582843
H    -2.397806    -5.822581    -2.242150
O    -3.316948    -5.685651    -2.508493
H    -3.404017    -5.988985    -3.441299
H    -2.930800    -5.819233    -5.561096
O    -3.512944    -6.465559    -5.105492
H    -2.939027    -7.241135    -4.935915
H    -1.388113     3.718203    -6.987925
O    -0.845560     2.963993    -6.717408
H    -1.078404     2.178866    -7.268943
H    -0.187003     0.415828    -8.224620
O    -1.084723     0.646053    -7.942033
H    -1.256931     0.121800    -7.143921
H    -10.425829     4.004157    -2.746562
O    -10.489508     3.223259    -2.181011
H    -9.660769     3.200799    -1.670726
H     4.574942     4.082364     1.720828
O     4.369174     3.160534     1.998013
H     5.087019     2.587018     1.716709
H     6.495194     1.415708    -4.220769
O     6.193385     0.789737    -3.528096
H     6.222225     1.283746    -2.683377
H     9.653216    -2.201721    -0.933206
O     9.930193    -1.983701    -1.832046
H     9.128589    -1.648505    -2.275903
H     9.995715    -3.291676    -3.103328
O     9.732407    -3.943707    -3.779680
H     9.336589    -3.436848    -4.499270
H    -7.605082    -8.650178    -1.720848
O    -6.871203    -8.033537    -1.791581
H    -7.294364    -7.117634    -1.798062
H     4.151844     6.089048    -3.818017
O     4.810009     6.792889    -3.731708
H     5.647864     6.342073    -3.593850
H     0.135865    -8.188183    -5.221615
O     0.184438    -9.171488    -5.122360
H     0.372027    -9.502664    -6.000781
H    -2.822148    -8.757951    -3.400233
O    -2.047334    -8.369062    -3.852470
H    -1.522149    -9.075450    -4.248117
H     2.232970    -10.814898    -3.511363
O     2.193477    -9.859754    -3.499235
H     1.401648    -9.592090    -4.019395
H     6.838041     3.350283    -4.572989
O     6.899648     2.673591    -5.274968
H     6.105868     2.803914    -5.815867
H    -3.544779    -3.758024     7.704454
O    -3.663289    -2.970485     7.174902
H    -3.409090    -3.207405     6.256619
H    -0.604919    -3.366961    -6.740132
O     0.020316    -2.631348    -6.747062
H    -0.465085    -1.859769    -6.402046
H     0.643283     0.440054     8.745464
O     0.654402    -0.273535     8.103655
H    -0.266343    -0.566579     8.014733
H    -5.847591     7.339896    -4.255487
O    -6.348118     6.719746    -4.817365
H    -6.632568     5.987361    -4.227005
H    -4.300145     9.079125    -3.264056
O    -4.832887     8.280816    -3.159011
H    -4.422992     7.802082    -2.420377
H    -9.719315     5.753095    -4.654831
O    -10.249763     4.945907    -4.493777
H    -11.131007     5.144897    -4.811999
H     2.749536     6.505671     6.142272
O     1.788965     6.598564     6.239394
H     1.449066     5.683964     6.135666
H     4.781766     8.553077     0.090403
O     5.098359     8.554102     1.011610
H     5.508432     7.691170     1.141887
H     4.185936    -7.418515    -4.356609
O     3.432216    -7.703292    -4.904605
H     3.148451    -8.544242    -4.530456
H     0.351488     8.643429     4.237441
O     1.031696     8.001659     4.008780
H     1.259695     7.508557     4.822916
H     5.232986     4.202492    -3.156410
O     6.194487     4.176929    -3.102621
H     6.405220     3.594801    -2.355764
H    -2.567227    -1.576739     7.560144
O    -2.060573    -0.781478     7.781411
H    -2.689084    -0.158621     8.156631
H    -9.044504     7.896064    -4.152420
O    -8.978514     7.311382    -4.908893
H    -8.020580     7.152309    -5.044096
H     3.574364    -8.980511     1.068340
O     2.897107    -8.353063     1.326077
H     3.368788    -7.545676     1.602991
H     3.562338     8.170961     1.833963
O     2.773565     7.604704     1.944743
H     2.326191     7.837314     2.771116
N    -4.778712    -9.010894    -3.490540
H    -5.458093    -8.633894    -2.898154
H    -5.041767    -8.702793    -4.362889
