27

H    -0.838648     0.550706     6.005665
O    -0.562419     0.038719     5.222454
H     0.151781    -0.578340     5.490039
H    -4.016375     1.215058     6.917033
O    -3.814541     1.660893     7.780712
H    -4.691762     2.043464     8.059579
H    -0.488464     2.100981     7.676119
O    -1.146998     1.955357     6.966224
H    -2.006120     2.016914     7.399927
H    -2.517370     3.039859     10.561669
O    -2.317189     2.109252     10.343961
H    -2.909163     1.906636     9.606686
H    -0.056268     3.508932     9.003591
O     0.322323     2.638366     9.238985
H    -0.379980     2.233372     9.768518
H    -3.859285    -3.791109     7.574459
O    -3.698225    -2.960207     7.121823
H    -3.431324    -3.210471     6.204404
H     0.974544    -0.306046     9.003123
O     0.785833    -0.190298     8.067387
H    -0.151095    -0.424989     8.008718
H    -2.616703    -1.662339     7.791053
O    -2.134643    -0.866799     8.088784
H    -2.808491    -0.176548     8.147402
N    -0.800685    -0.479161     10.637605
H    -1.372275    -0.790928     9.916226
H    -1.268362     0.300761     10.960499
