33

H     1.767045     3.458094     6.818911
O     1.169763     3.984125     6.260654
H     0.347605     4.123921     6.783498
H    -1.760669     4.450656     7.554341
O    -0.839829     4.538607     7.905029
H    -0.676952     5.499920     8.038955
H    -0.663118     1.923762     7.680110
O    -1.298246     1.890252     6.949761
H    -2.162036     1.714756     7.346460
H    -2.523868     2.872754     10.616103
O    -2.292503     1.966342     10.318181
H    -2.891018     1.806763     9.573390
H    -0.184000     3.329455     8.897800
O     0.160187     2.493362     9.303268
H    -0.635906     2.182974     9.804877
H     1.967553     1.962108     8.306107
O     2.758957     2.227643     7.820439
H     3.212685     1.378509     7.624234
H    -2.060541     5.216192     10.786556
O    -2.845885     4.619021     10.943057
H    -3.156959     4.848271     11.823538
H     0.116152     5.699635     10.753034
O    -0.712221     6.217206     10.712041
H    -0.643293     6.712987     9.880579
H     0.640775     7.163489     7.643242
O    -0.277416     7.179619     7.976021
H    -0.791179     7.201854     7.129314
H     2.830413     6.620876     6.119356
O     1.865569     6.664829     6.233372
H     1.594929     5.725665     6.107155
N     1.593848     4.536579     10.716248
H     1.288637     3.688405     10.346432
H     2.403671     4.742164     10.239357
