30
Coordinates from ORCA-job grain_mol_opt.QMRegion
  H   -0.96495896602673      0.60432036941615      5.99750813831119
  O   -0.67916669479540      0.08430556068919      5.22834058118460
  H   0.01939223382221     -0.53530753119936      5.51895689312026
  H   1.91078826133874     -3.71916888752255      4.15099816062873
  O   1.71371544500902     -4.16964845032475      5.00030879153254
  H   2.29041410537166     -3.70974929511886      5.63630385109842
  H   4.12717928880419     -2.48023941863136      5.85114325399924
  O   3.82441411849697     -3.14466168468992      6.49834166712570
  H   4.34874208621051     -3.93989335175895      6.27122819141649
  H   4.96254945472032     -2.21882108747433      3.66920026017732
  O   4.97004448857218     -1.52841651693158      4.36939013787273
  H   4.18469076109331     -0.95334753406593      4.17881485116767
  H   1.99375345354689     -0.83336161677812      5.08509962112968
  O   1.46815640683557     -1.35489021923105      5.72887211078019
  H   1.62171519543407     -0.94654024553406      6.58936655196004
  H   3.92579851279380     -0.25104414041648      7.64124695525668
  O   3.93699465383021      0.47662417029327      6.98164915724598
  H   4.85198821793308      0.65575104080319      6.71961912764798
  H   1.91257993737796      2.42536300997703      8.56838673380309
  O   2.65668425366069      2.65902000953151      7.99804841638709
  H   3.09493375127369      1.81452689848230      7.74962574934303
  H   6.55665399807097     -2.28159670478799      6.00521243347935
  O   7.14126862767162     -3.04196172897641      5.91607736839020
  H   6.53673916179579     -3.79626943952333      5.89097236197775
  H   0.55793223849304      0.43368804165392      8.78748539132473
  O   0.58043178375744     -0.41811546775767      8.33332182678943
  H   -0.36120190813888     -0.64119804556888      8.19333039506149
  O   3.37986853025552     -1.53266959101502      8.72623802742585
  H   3.49398281152853     -2.27022973306518      8.09725318413386
  H   2.42214528101998     -1.40629345726042      8.80048990752446
