12
Coordinates from ORCA-job grain_mol_opt.QMRegion
  H   3.24307544681594     -2.57043503368381     -8.39226651287126
  O   3.16148226016284     -3.06963942791531     -7.56149450836858
  H   4.04554952637107     -3.01959966378134     -7.15463133429897
  H   4.76895529602730     -1.29740711152516     -9.28189986896321
  O   3.85172382451132     -1.22826573135315     -9.61955529723590
  H   3.92649302701748     -1.64553226546383    -10.48503683165300
  H   6.99856746208182     -1.10919050307981     -8.30430914345301
  O   6.39902006142437     -1.81482477136966     -8.58565090613429
  H   6.13950089467595     -2.23812453849034     -7.74467571226468
  O   5.48875364014150     -3.11364456076513    -11.03421061867482
  H   6.06252796574008     -3.34490064285182    -11.76906078691378
  H   6.08950001720924     -2.86887906151907    -10.31360578805339
