30

H     4.277769    -2.378825     5.725495
O     3.944141    -2.934488     6.462265
H     4.356265    -3.801719     6.287007
H     4.876823    -2.174115     3.639156
O     4.900482    -1.458772     4.308392
H     4.075338    -0.917090     4.141213
H     3.530085    -1.177304     7.538228
O     3.733905    -0.234176     7.481149
H     4.700972    -0.224794     7.380320
H     6.684696     1.154124     4.511476
O     6.345540     1.668796     5.277078
H     6.435265     2.609566     4.990180
H     7.438961    -0.694023     2.987422
O     6.803480    -0.009657     3.239426
H     6.059643    -0.553904     3.621719
H     7.612691    -2.648091     4.206924
O     7.787336    -2.700473     3.245486
H     7.268623    -3.482674     2.986276
H     1.803734     2.248318     8.545572
O     2.557887     2.241182     7.935598
H     2.825558     1.302572     7.881697
H     4.479808     1.976268     5.171160
O     3.544191     2.226496     5.082470
H     3.149334     2.144234     5.961023
H     6.991249    -2.091354     6.356348
O     7.294127    -2.939630     5.985872
H     6.539279    -3.536701     6.049504
N     6.583104    -0.315922     7.087467
H     7.114873    -0.117115     7.863242
H     6.638711     0.488774     6.517639
