603

H     0.211615     3.037622    -0.674291
O     0.733333     2.367948    -1.167080
H     1.672454     2.496394    -0.894145
H    -0.067581    -1.299472     3.157128
O     0.325126    -0.599882     2.612557
H    -0.151332     0.214461     2.845189
H    -2.388095     2.419377    -0.529780
O    -2.178672     1.948418     0.294346
H    -2.194744     1.000694     0.068954
H    -4.652749     0.558614     2.188989
O    -4.970504    -0.374562     2.203285
H    -4.467292    -0.852838     1.536085
H     0.072866    -0.301540     0.956958
O    -0.125683    -0.064971     0.030378
H     0.215077     0.831121    -0.091016
H    -0.147740    -3.569286     3.784529
O    -0.425625    -2.739087     4.205579
H     0.221549    -2.569305     4.906547
H    -4.875150     2.541949     1.337182
O    -4.235880     2.132401     1.952274
H    -3.393429     2.113525     1.438703
H    -3.237917     3.907056    -2.206259
O    -2.501525     3.308647    -1.975250
H    -2.142907     3.021014    -2.834893
H    -0.120185    -3.798121     0.510168
O     0.220701    -2.980928     0.927835
H    -0.566027    -2.493434     1.239464
H    -2.370264    -1.528927     2.476406
O    -2.181971    -1.995553     1.635877
H    -2.439729    -1.408552     0.905961
H     2.079065    -1.439213    -1.116285
O     2.310954    -1.692214    -0.198899
H     1.521500    -2.118885     0.185362
H    -1.379581     1.832147     1.916998
O    -1.472579     1.435731     2.793579
H    -1.454834     2.148904     3.457301
H     0.213423    -2.697443    -1.563859
O    -0.541898    -2.085396    -1.617898
H    -0.361285    -1.358584    -0.984798
H    -3.431645    -2.915738    -0.383370
O    -2.714924    -3.408897    -0.803771
H    -2.004350    -2.778998    -1.023066
H     2.782089     0.132836     2.937515
O     2.881283    -0.049276     3.899479
H     2.973785     0.843856     4.303058
H    -3.514751     6.390421    -0.539057
O    -3.277398     7.053071    -1.239007
H    -3.132449     7.897645    -0.768431
H     3.910764     0.587170     1.189209
O     2.960390     0.405168     1.306583
H     2.722223    -0.346338     0.726480
H    -5.773442     0.854216    -1.597295
O    -4.862645     1.180471    -1.471061
H    -4.972609     2.009207    -0.959739
H    -1.196861     5.407424     2.211068
O    -1.824685     4.661034     2.098779
H    -1.896281     4.241154     2.961158
H     3.503961     2.766955     0.428029
O     3.255007     2.722846    -0.510786
H     3.587411     1.880192    -0.861038
H     1.493637    -4.692737    -2.244907
O     1.559152    -3.915499    -1.671867
H     2.354005    -3.455082    -2.023477
H    -0.915238    -0.078046    -2.542201
O    -0.280484     0.573403    -2.867079
H    -0.018989     1.156148    -2.130737
H     1.702665    -4.680990    -0.173532
O     1.809137    -5.317887     0.569365
H     1.344975    -6.128731     0.273670
H    -1.223130    -3.258866    -2.873236
O    -1.050861    -3.942779    -3.533771
H    -0.924918    -4.789610    -3.064532
H    -2.769415     3.316002     4.708706
O    -1.788157     3.316823     4.676774
H    -1.494041     2.912006     5.510745
H     0.971447     5.044818     4.078043
O     0.026974     5.280253     4.132371
H    -0.445982     4.481265     4.399370
H    -1.727120    -4.642829    -0.364106
O    -0.962407    -5.184285    -0.079254
H    -1.310394    -5.870726     0.499221
H    -3.905282     5.841966    -2.593099
O    -4.257505     5.008205    -2.922255
H    -4.102868     4.972729    -3.890453
H    -2.425340    -3.680185     1.943559
O    -2.444498    -4.584019     2.320239
H    -1.504841    -4.823182     2.459846
H    -4.692035    -2.969772    -2.890401
O    -3.840176    -3.203606    -3.297140
H    -3.509564    -3.997274    -2.831752
H     0.350329     1.382569     4.618692
O     0.857208     2.141453     4.283947
H     0.906543     2.801091     4.989866
H    -4.653054    -5.159690    -1.561975
O    -5.354254    -4.805559    -0.987863
H    -5.140869    -5.159932    -0.103790
H     2.325822    -6.478773    -4.034041
O     1.989534    -6.149636    -3.180373
H     2.423946    -6.723582    -2.517246
H     0.469077    -3.374279    -3.999932
O     1.271967    -3.008371    -4.423574
H     0.952471    -2.636495    -5.271935
H     1.971826    -1.747641     2.985947
O     2.125638    -2.678990     2.769589
H     1.439487    -2.892040     2.102662
H    -3.010798    -1.800574    -3.202606
O    -2.587819    -0.914515    -3.137849
H    -3.242739    -0.268280    -3.457536
H    -3.177267     4.985951     1.084969
O    -3.959352     5.357978     0.629739
H    -4.376189     5.916157     1.333922
H     0.887389     2.259812     2.594401
O     0.986583     2.253483     1.623138
H     1.713993     1.630968     1.458775
H     0.203527     5.664530    -0.753341
O     0.724787     6.324913    -1.263883
H     0.870326     7.125345    -0.708756
H     0.362067     7.043143     2.604233
O    -0.010999     6.666721     1.791232
H     0.652041     5.998737     1.519667
H    -2.470414     0.225278     3.347449
O    -2.693472    -0.587902     3.853412
H    -1.932107    -0.629013     4.473840
H    -0.882178     0.562050     6.031841
O    -0.610015     0.042508     5.257246
H     0.104084    -0.561319     5.542225
H     0.713591    -4.988012     1.986314
O     0.171805    -5.096884     2.791240
H     0.315866    -6.017589     3.063395
H    -2.118557    -8.079745     0.456660
O    -1.795352    -7.591941     1.241641
H    -2.581159    -7.279811     1.697920
H    -0.366055     6.870643    -2.321292
O    -1.112608     7.290024    -2.821284
H    -1.902085     7.165471    -2.256769
H    -1.102022     4.317552     0.578772
O    -0.729372     4.377036    -0.317487
H    -1.436590     4.136637    -0.949546
H    -4.397514     2.758519     3.513679
O    -4.396542     2.928604     4.478603
H    -4.480120     2.045302     4.887159
H     2.030458    -3.577086     4.249071
O     1.966553    -4.048647     5.102711
H     2.475625    -3.512780     5.732408
H     4.692784    -3.192914     0.842003
O     4.531608    -3.117615    -0.124340
H     3.673232    -2.639262    -0.207377
H    -2.716629    -0.739578    -1.344927
O    -3.043600    -0.469515    -0.470334
H    -3.843376     0.057471    -0.677123
H    -1.612592    -0.753780    -4.625133
O    -1.105928    -0.538867    -5.429466
H    -0.395546     0.057404    -5.145034
H     1.798573    -1.711111    -3.372855
O     1.891825    -0.964471    -2.749718
H     1.115110    -0.386360    -2.880582
H     3.668969    -3.119099     2.554167
O     4.627772    -3.348920     2.480762
H     4.681732    -4.309115     2.607471
H     3.429525    -6.117817     3.127793
O     3.784760    -5.917638     2.227328
H     3.047274    -5.571393     1.684757
H    -3.337208     1.619656    -4.171412
O    -4.182567     1.149898    -3.980069
H    -4.399202     1.296184    -3.023365
H    -5.071388     4.158090     0.072215
O    -5.511549     3.292499    -0.028351
H    -6.441579     3.412573    -0.311165
H     6.739449    -1.183074    -1.361924
O     5.967762    -1.032891    -0.809475
H     5.548093    -1.900192    -0.611778
H     4.596406    -3.168134    -2.467581
O     3.728328    -2.996290    -2.882876
H     3.730678    -3.615084    -3.639004
H     4.443283    -2.290558     5.624503
O     4.100245    -2.755353     6.418170
H     4.434607    -3.660655     6.336642
H    -0.788469     6.407618     4.924847
O    -1.382054     6.951016     5.502917
H    -1.524169     7.814987     5.054493
H     4.704831    -0.135546    -1.464413
O     3.937669     0.407342    -1.726712
H     3.244497    -0.192569    -2.056405
H    -0.733503     4.529832    -4.032982
O    -1.515877     5.073479    -4.240618
H    -1.362935     5.940169    -3.818239
H     0.668317     3.209013    -2.654194
O     0.674921     3.585000    -3.562998
H     0.721530     2.821288    -4.148156
H    -5.380325    -5.181355     1.804088
O    -4.684442    -5.776939     1.448768
H    -3.843330    -5.361687     1.718609
H     7.884086    -1.693515    -4.033723
O     7.627151    -1.379870    -3.133974
H     7.141083    -0.535441    -3.290372
H     3.699582    -5.071547    -5.286333
O     4.462807    -4.698848    -4.805934
H     4.846899    -5.410117    -4.260227
H    -3.773229     0.030456     4.942600
O    -4.372445     0.494880     5.576892
H    -5.033707    -0.162558     5.868008
H     3.465053    -5.940058    -0.515278
O     4.337867    -5.694029    -0.833708
H     4.415293    -4.731694    -0.690549
H     5.004403    -0.335983    -4.158960
O     4.468264    -1.047157    -4.548157
H     4.142024    -1.629729    -3.829807
H    -1.166324     1.578541    -3.931390
O    -1.816708     2.199300    -4.316891
H    -1.459259     2.530739    -5.163338
H     4.883961    -6.321877    -2.311716
O     5.215739    -6.647593    -3.177484
H     6.033466    -7.129165    -2.991269
H     8.740059    -5.095945    -2.918150
O     8.048746    -5.512913    -2.359210
H     8.082425    -6.470277    -2.461095
H     2.349331     4.726107     0.456041
O     1.768995     4.707780     1.226429
H     1.412314     3.787665     1.303072
H    -4.408430    -2.622265     4.240209
O    -5.302172    -2.281331     4.039072
H    -5.164819    -1.501174     3.462256
H    -5.841609    -3.183049     1.327317
O    -6.304393    -3.739322     1.996410
H    -6.115016    -3.303679     2.846570
H     1.697485     3.454879     6.874559
O     1.074872     3.969336     6.338230
H     0.293181     4.135135     6.907577
H     5.007911    -2.167365     3.618516
O     5.029215    -1.449132     4.282699
H     4.218151    -0.891814     4.125739
H     2.394649    -5.571484     4.843699
O     2.773770    -6.455739     4.583961
H     2.028179    -7.036647     4.410184
H     2.254603    -4.514606    -6.785631
O     2.085475    -5.002506    -5.969702
H     1.821978    -4.310744    -5.314363
H     6.442045    -4.104189    -0.501956
O     7.195025    -4.507998    -0.038944
H     7.701507    -4.931392    -0.759928
H    -1.706938     4.505661     7.704465
O    -0.807759     4.624380     8.083814
H    -0.641634     5.584493     8.089913
H    -5.109666     5.703515    -5.590106
O    -4.503094     4.939214    -5.610637
H    -3.745703     5.152829    -6.176791
H     3.279623    -2.527663    -8.433556
O     3.192033    -3.059934    -7.631965
H     4.068980    -3.036235    -7.203733
H    -0.645107     8.833704    -2.274447
O    -0.522314     9.661798    -1.755310
H     0.240059     9.487088    -1.178431
H     2.075713    -0.906698     5.214423
O     1.502556    -1.430957     5.803140
H     1.599409    -1.086292     6.700113
H     5.206267    -2.025486    -5.691295
O     5.551280    -2.792344    -6.213273
H     5.277107    -3.581790    -5.695176
H     5.699830    -5.213073     4.688928
O     5.178167    -5.127165     5.515932
H     4.456219    -5.758763     5.431137
H    -3.961068     1.160163     7.014167
O    -3.768074     1.638666     7.856722
H    -4.644667     2.022672     8.118520
H    -1.834795     9.622024    -0.739379
O    -2.695608     9.496572    -0.264925
H    -3.305386     10.126106    -0.653486
H    -5.938890     4.701303    -2.931889
O    -6.848091     4.582462    -3.274863
H    -6.758756     3.879926    -3.951925
H     0.093200    -7.058871    -1.135842
O     0.557536    -7.494924    -0.388270
H    -0.121387    -7.688892     0.261105
H    -7.628360     3.804701    -1.965299
O    -7.889810     3.218281    -1.224731
H    -7.748032     2.309311    -1.564078
H     3.984173    -0.887320     6.988782
O     3.993554     0.076874     6.979877
H     4.805529     0.365976     6.546938
H     2.269971     5.800114    -1.177985
O     3.204928     5.505291    -1.064640
H     3.380216     4.965608    -1.858153
H     6.551604    -5.930305     0.674265
O     6.182675    -6.666022     1.208649
H     5.278559    -6.387929     1.435876
H    -3.852374     4.738490     7.791857
O    -3.283524     4.278633     7.132083
H    -3.477811     3.334396     7.237842
H     5.760953    -7.945659     0.141748
O     5.471848    -8.632941    -0.495029
H     4.642802    -8.306679    -0.888931
H    -0.542852     2.050340     7.698897
O    -1.177770     1.991108     6.964736
H    -2.045317     1.844537     7.361297
H    -6.376190    -0.108101     1.072156
O    -6.696794    -0.191705     0.159474
H    -7.615754    -0.461728     0.177695
H    -5.368877    -3.052338    -0.578001
O    -5.116005    -2.350138     0.047542
H    -5.685085    -1.576703    -0.140635
H     4.330107     5.580052     0.321113
O     4.660510     5.679790     1.227549
H     3.967412     6.198617     1.674240
H    -9.041025    -1.730052    -2.241004
O    -8.492545    -1.528810    -1.455315
H    -8.619970    -2.265220    -0.817432
H    -5.518713     3.481104    -5.520190
O    -6.036368     2.770993    -5.104832
H    -5.369945     2.185191    -4.691327
H     3.181681    -0.887604    -5.652252
O     2.325269    -1.007205    -6.117298
H     2.409769    -1.856440    -6.590469
H     8.114780    -1.354290    -6.029775
O     8.122567    -2.218141    -5.572994
H     7.265766    -2.617334    -5.822695
H     7.623088     0.986445    -6.311230
O     7.433069     0.138103    -6.723936
H     6.451638     0.089119    -6.759370
H    -7.857334    -3.677878     0.942383
O    -8.536264    -3.570568     0.258617
H    -8.439193    -4.330219    -0.343003
H    -2.420059     8.753620     1.251771
O    -2.257842     8.238527     2.060046
H    -1.475975     7.683763     1.876003
H    -4.435383     6.444651     3.496640
O    -4.603594     6.873525     2.642641
H    -3.837058     7.455273     2.499157
H     3.407539     3.447830    -3.576776
O     3.255391     4.417211    -3.484164
H     2.290471     4.483197    -3.590249
H    -6.113663    -1.594173    -3.431884
O    -6.196626    -2.172949    -2.647512
H    -6.979938    -1.864665    -2.138552
H     6.478097     1.051050     4.739949
O     6.084932     1.590765     5.442688
H     6.273969     2.509007     5.149996
H     1.364874     1.724798    -5.819291
O     1.170048     1.129275    -5.064824
H     1.532945     0.265914    -5.334403
H    -2.471287     2.979315     10.489292
O    -2.261048     2.071851     10.215637
H    -2.860278     1.871615     9.484503
H     7.635490    -0.497921     3.082733
O     6.886031     0.078217     3.252425
H     6.193649    -0.521479     3.632264
H    -5.661787    -8.042146    -0.687739
O    -4.926516    -8.111286    -0.041839
H    -4.929030    -7.293689     0.479636
H    -5.175055    -0.108777    -4.706242
O    -5.793038    -0.820139    -4.945023
H    -6.630843    -0.377724    -5.142922
H     1.889913    -0.197233    -7.511323
O     1.688050     0.274216    -8.355376
H     2.263911    -0.131892    -9.008650
H     4.869532    -1.396224    -9.302138
O     3.944372    -1.166634    -9.583786
H     3.923396    -1.284844    -10.532761
H     7.570545    -2.570664     4.200302
O     7.716391    -2.607278     3.240720
H     7.222193    -3.397847     2.969605
H     6.722728    -5.894464     2.687372
O     6.785500    -5.219178     3.388363
H     7.661778    -5.304704     3.805299
H    -2.271615     9.138965     3.620193
O    -2.203774     9.365598     4.571055
H    -3.093793     9.211353     4.958090
H    -7.386443     1.579752    -5.240789
O    -7.961757     0.836268    -4.994819
H    -8.863080     1.236732    -4.918582
H     6.924344    -1.087455    -8.404213
O     6.341648    -1.808221    -8.667035
H     6.113982    -2.257358    -7.834633
H    -1.669704     6.246664    -7.018800
O    -2.068096     5.421910    -6.744405
H    -1.818946     5.291583    -5.780759
H     0.021890     3.329719     9.029554
O     0.211403     2.407792     9.278802
H    -0.585978     2.145558     9.787873
H     6.757160    -2.781390    -2.703821
O     6.226337    -3.525065    -2.362010
H     6.693859    -4.336381    -2.608692
H    -4.078539    -3.064177    -4.933765
O    -4.233413    -2.952011    -5.898505
H    -4.779911    -2.158433    -5.954734
H     1.996672     2.187451     8.471523
O     2.658743     2.301423     7.780179
H     3.080914     1.431402     7.661305
H    -6.908246    -5.188174    -1.382338
O    -7.824296    -5.456915    -1.626971
H    -7.958161    -5.054758    -2.510095
H    -3.799495     5.250330     5.721692
O    -3.793145     6.009961     5.117318
H    -2.865276     6.333889     5.187473
H    -7.880609     0.102063    -1.955288
O    -7.390406     0.824992    -2.369431
H    -7.619250     0.813819    -3.322565
H     5.843862     0.130913     0.412568
O     5.622783     0.852836     1.033223
H     6.133698     0.658238     1.845755
H    -6.200113     3.328301     7.405623
O    -6.071814     2.811643     8.235145
H    -6.672300     2.050220     8.147660
H     2.274768    -8.069845    -0.835126
O     2.951369    -8.058324    -1.531760
H     2.725318    -8.772438    -2.144403
H    -2.747707    -3.954864    -6.187666
O    -1.994584    -4.521891    -5.956106
H    -1.717176    -4.229992    -5.059402
H    -5.630173     3.776766     5.316575
O    -6.275894     4.173675     5.937251
H    -6.123747     5.119169     5.910978
H    -1.022421    -7.108003    -3.153284
O    -0.548926    -6.438520    -2.625666
H     0.358317    -6.370138    -3.007379
H     4.457308     2.021385     5.128801
O     3.515602     2.261966     5.010776
H     3.132468     2.277283     5.892910
H     4.139832     4.647544     6.297803
O     4.219008     5.381191     5.683690
H     3.645678     5.149568     4.913368
H     2.777596     3.624182     3.923310
O     2.599990     4.564783     3.761243
H     2.479251     4.665722     2.794904
H     9.398942     0.207575    -1.073174
O     8.593292     0.371208    -0.579282
H     8.417147    -0.447182    -0.085593
H    -2.093939     5.361644     10.636267
O    -2.794762     4.718534     10.885374
H    -3.007099     4.899299     11.801298
H     7.976002    -3.011126     0.328165
O     8.398352    -2.164841     0.582486
H     8.333255    -2.159167     1.544827
H     5.385239     3.667678     3.522140
O     6.042980     3.929764     4.188295
H     5.634219     4.651053     4.688637
H    -4.191489     5.039818     9.792066
O    -4.822901     5.191261     9.068776
H    -5.437650     4.444748     9.066983
H    -7.011303    -3.465430    -3.472527
O    -7.632794    -4.077032    -3.919915
H    -7.112784    -4.519958    -4.622369
H    -0.002635     6.344192     10.750363
O    -0.880098     6.565506     10.435491
H    -0.757374     6.969568     9.557898
H     2.593258     1.497672    -4.102389
O     3.472440     1.849244    -3.865169
H     3.792651     1.335092    -3.094086
H    -6.960638    -0.199162     7.231933
O    -7.467086     0.580976     7.511778
H    -8.092252     0.763003     6.809057
H    -2.747905    -9.863886    -0.816484
O    -2.683902    -8.922387    -0.976844
H    -3.589242    -8.554847    -0.735758
H    -10.063433     3.091344    -4.886565
O    -10.181341     2.174172    -4.605202
H    -10.396163     2.259033    -3.655334
H    -2.061324    -3.012330     4.623241
O    -2.936886    -3.451044     4.694166
H    -2.932158    -4.069332     3.938161
H    -0.178656    -7.973860     2.495781
O     0.648227    -7.763946     2.943003
H     1.365809    -8.060893     2.355835
H     6.714491    -2.372132     6.393965
O     7.162680    -3.082950     5.930847
H     6.531751    -3.816999     5.893332
H    -5.262773    -1.986045     6.955054
O    -5.938658    -1.486821     6.471706
H    -5.923932    -1.864306     5.562552
H     0.839521     3.035347    -7.111207
O     1.756652     2.703301    -7.168008
H     1.741381     1.955498    -7.793420
H    -4.569306     8.517424     6.731370
O    -4.549743     8.477592     5.770239
H    -4.388403     7.526308     5.567477
H    -2.045174     10.322549    -2.733950
O    -2.946606     10.504330    -3.036486
H    -2.874180     11.138553    -3.749079
H     9.415462    -4.062478     4.044368
O     9.135425    -4.739734     4.667764
H     8.707237    -4.266258     5.391944
H    -0.740105    -5.992445    -5.830958
O    -0.037016    -6.559549    -5.497639
H     0.798826    -6.099107    -5.716378
H     1.844219     8.281115     0.666044
O     1.535723     8.600363    -0.211989
H     2.349062     8.640834    -0.743982
H     3.501877     2.929768    -6.661183
O     4.329467     2.638303    -6.252787
H     4.084890     2.365988    -5.343306
H     3.744980     7.128533    -1.231604
O     3.951158     8.063273    -1.447974
H     4.320099     8.005336    -2.341167
H     4.394233    -0.009129    -7.909951
O     4.772296     0.136984    -7.040942
H     4.591868     1.069294    -6.797598
H     6.037950     1.933922    -0.476067
O     6.602706     2.125376    -1.238663
H     7.427060     1.645323    -1.044975
H     6.679421    -8.432756    -1.601917
O     7.314868    -8.223289    -2.339236
H     7.680182    -9.058144    -2.627117
H    -5.306227    -5.778194    -5.394067
O    -5.923022    -5.105732    -5.708593
H    -5.371258    -4.338275    -5.946415
H     0.671600     7.129759     7.596570
O    -0.238259     7.323253     7.883228
H    -0.751905     7.231045     7.042540
H    -8.898136    -2.818942    -4.087383
O    -9.417499    -2.009730    -3.919860
H    -9.131448    -1.345633    -4.550826
H    -2.412321    -5.979346    -2.132394
O    -3.290540    -5.692455    -2.400165
H    -3.478896    -6.067248    -3.285639
H    -2.991749    -5.892121    -5.397766
O    -3.591820    -6.500987    -4.924540
H    -3.110646    -7.321712    -4.757970
H    -1.386530     3.732227    -6.977921
O    -0.847013     2.975815    -6.707280
H    -1.085449     2.190743    -7.256532
H    -0.204811     0.420698    -8.210424
O    -1.100424     0.656884    -7.926444
H    -1.275291     0.134140    -7.127897
H    -10.415201     4.070538    -2.722714
O    -10.482962     3.292475    -2.153773
H    -9.652975     3.265543    -1.645935
H     4.588498     4.085572     1.720925
O     4.382227     3.163736     1.999930
H     5.097890     2.588744     1.716470
H     6.489211     1.396135    -4.220424
O     6.186347     0.772581    -3.525792
H     6.218282     1.268737    -2.682402
H     9.635574    -2.229931    -0.931071
O     9.911575    -2.016579    -1.831288
H     9.111234    -1.676939    -2.274092
H     9.968812    -3.326466    -3.099782
O     9.700505    -3.978626    -3.774126
H     9.306709    -3.470979    -4.494319
H    -7.703354    -8.559592    -1.648877
O    -6.965005    -7.966026    -1.777862
H    -7.341751    -7.052624    -1.768396
H     4.169403     6.081555    -3.822694
O     4.831503     6.782153    -3.740653
H     5.667216     6.327885    -3.601404
H     0.090242    -8.165985    -5.205281
O     0.113076    -9.148857    -5.072845
H     0.262460    -9.513298    -5.945317
H    -2.338470    -8.665050    -2.703111
O    -2.105420    -8.401996    -3.613055
H    -1.459715    -9.021214    -3.972175
H     2.174668    -10.813414    -3.485836
O     2.129480    -9.858827    -3.461774
H     1.344025    -9.587432    -3.987614
H     6.840985     3.327940    -4.576933
O     6.897848     2.649166    -5.277416
H     6.104076     2.783034    -5.817499
H    -3.556113    -3.705965     7.731987
O    -3.668875    -2.917904     7.201974
H    -3.419398    -3.157979     6.283318
H    -0.641557    -3.357657    -6.716385
O    -0.010433    -2.627022    -6.724801
H    -0.490914    -1.850698    -6.383277
H     0.654701     0.472213     8.759819
O     0.660894    -0.240088     8.116828
H    -0.261196    -0.529901     8.030675
H    -5.823985     7.380383    -4.245371
O    -6.328225     6.761693    -4.805509
H    -6.615343     6.031532    -4.213553
H    -4.266147     9.114252    -3.259973
O    -4.802761     8.318882    -3.152364
H    -4.393597     7.839505    -2.413731
H    -9.703803     5.812861    -4.635576
O    -10.237894     5.008819    -4.471130
H    -11.118427     5.210368    -4.789701
H     2.854419     6.366154     6.254694
O     1.888734     6.469091     6.345858
H     1.562694     5.542249     6.248805
H     4.820410     8.549362     0.078822
O     5.145154     8.551740     0.996872
H     5.544634     7.684561     1.130048
H     4.136924    -7.425277    -4.336432
O     3.378058    -7.709691    -4.877845
H     3.097351    -8.550134    -4.500892
H     0.960672     8.749603     4.484905
O     1.189206     7.918347     4.026070
H     1.448295     7.304569     4.736816
H     5.242519     4.192374    -3.159059
O     6.204004     4.160208    -3.107951
H     6.412911     3.579946    -2.359246
H    -2.565992    -1.529456     7.581986
O    -2.056233    -0.735580     7.801519
H    -2.682466    -0.110228     8.176240
H    -9.017341     7.952724    -4.138452
O    -8.955483     7.367029    -4.894487
H    -7.998620     7.202264    -5.030518
H     3.527567    -8.975354     1.098011
O     2.851777    -8.342926     1.347602
H     3.327450    -7.537812     1.626365
H     3.599128     8.182993     1.830548
O     2.811614     7.616350     1.933188
H     2.366169     7.832736     2.772419
N     0.290296     10.056594     5.602860
H     0.250426     9.673694     6.486852
H    -0.634595     10.026758     5.291114
