27
Coordinates from ORCA-job grain_mol_opt.QMRegion
  H   0.22825679420095      6.76745884672155      2.71539504411502
  O   -0.02378760763639      6.56958598227649      1.80208946413011
  H   0.62710381201376      5.89103655868062      1.51647570206459
  H   4.28839605576002      5.48048817311617      0.25791345269141
  O   4.70823022715189      5.61236960512540      1.12949666254434
  H   4.00574807123203      6.06729642482314      1.62890020890444
  H   4.15775110994935      4.65806441636729      6.23837749506137
  O   4.21700186116430      5.40115078796649      5.62552864358586
  H   3.62008314861178      5.13419845045958      4.88413976937371
  H   1.81528404334950      8.28925926063858      0.61668804966254
  O   1.53188159236213      8.59837876271398     -0.26908938774893
  H   2.34638845412553      8.57108211896434     -0.80153057176523
  H   2.71213024869472      6.52560270023507      6.22342165839332
  O   1.74404115559833      6.59191727470719      6.25899713033809
  H   1.45853952816474      5.65391399838774      6.18086355179357
  H   4.78705810298953      8.54340470613565      0.02755406945482
  O   5.14004124099626      8.57316571289800      0.93994689680718
  H   5.55182797364958      7.70097012397378      1.03127594292065
  H   0.23980520721723      8.72459543858027      4.30562050552374
  O   1.01524774239283      8.17135079376361      4.11889268411998
  H   1.17841268183299      7.61377237999687      4.91458976778197
  H   3.62965441066718      8.09564968102755      1.81016401058792
  O   2.81004680178722      7.56719130523100      1.92775654165859
  H   2.41346658666615      7.81683986395928      2.77578115116106
  O   3.52386835493580      9.66680206095377      4.41074168485652
  H   3.76648669003424     10.01362825056003      3.54660342382352
  H   2.59947851033429      9.38705845540422      4.31768108759886
