33
Coordinates from ORCA-job grain_mol_opt.QMRegion
  H   -0.22812769541693     -3.40494919377486      3.77001147075552
  O   -0.55341598685769     -2.61534842241130      4.23089793225016
  H   0.12779400110630     -2.39805315038502      4.88941827072129
  H   -2.51702379487196     -3.58229890853104      1.89660407901084
  O   -2.56544422316587     -4.46702122850684      2.32365329737588
  H   -1.63847810385449     -4.78886956364037      2.35358355480294
  H   1.91454520982770     -1.70475851738494      2.93940979364093
  O   2.03632936454157     -2.65725719776276      2.81184462910269
  H   1.39757567555558     -2.87926039037079      2.10304877277606
  H   0.65352813662870     -5.08019882327905      1.92882849548390
  O   0.09672634019107     -5.07102803696175      2.73564801310277
  H   0.20185560896212     -5.98269834232476      3.06754680799754
  H   1.95976056115299     -3.58554972171437      4.35930001102613
  O   1.93570457874061     -4.04376985078977      5.22585112771362
  H   2.45525403788666     -3.45839216591369      5.81434924217316
  H   2.35625242569177     -5.62131252468174      4.92265091658555
  O   2.72187519929441     -6.50596933233192      4.66914651614160
  H   1.96965745840136     -7.09045895635915      4.53616944798725
  H   1.99176070173865     -0.73558278563363      5.29864370280627
  O   1.44660165155382     -1.29015890118029      5.89013281761745
  H   1.45653981473032     -0.87427438184325      6.77125603917681
  H   -2.25882175000311     -2.89999933588125      4.62794356865400
  O   -3.05501531595725     -3.46021573177334      4.74038640171933
  H   -3.02925035584418     -3.99982667218649      3.91506588415174
  H   -0.28474004264112     -8.03068506468384      2.46306632195974
  O   0.55002908874938     -7.85050070186758      2.91431165566798
  H   1.25140297914246     -8.11365891047313      2.28688664292073
  H   -3.79834641881975     -3.49871929489882      7.87582604732728
  O   -3.81664091004311     -2.79377297989716      7.22884191831103
  H   -3.60132806583818     -3.19343631856208      6.35804100916154
  O   -0.65002366500165     -5.42929558759945      5.75858081259021
  H   -1.36802890750556     -4.80880536762828      5.58412705075499
  H   0.14445443372012     -4.87501304357333      5.75264697357870
