18
Coordinates from ORCA-job grain_mol_opt.QMRegion
  H   0.70197875605799     -5.00473024874987      1.93285529465707
  O   0.17967189186218     -5.08582233094283      2.75357454272277
  H   0.32786014460520     -5.99524345529010      3.04206621194774
  H   3.39259629757648     -6.14380247980055      3.13941953185460
  O   3.74519511233338     -5.95441374769570      2.23052687430905
  H   3.01659956656133     -5.59992993468425      1.68617384629880
  H   2.46670853876178     -5.54870953122139      4.94698658972699
  O   2.95376363351522     -6.38778354025646      4.71603093249802
  H   2.42706075974074     -7.13939423940828      5.04908235071588
  H   -0.38368897240445     -7.96565599538530      2.22082601893948
  O   0.45072194495042     -7.92904993304087      2.71746372895350
  H   1.16687359900574     -8.19699664694465      2.10750024156692
  H   3.49664088452870     -9.02076045956680      0.96091345773946
  O   2.83974087453349     -8.39409853843512      1.28141353808266
  H   3.35239698417013     -7.61903706324453      1.59289930028808
  O   1.27036593915571     -8.54817702117764      5.28327217064781
  H   0.86741005971103     -8.49703301231252      4.39365637630213
  H   1.67656198385969     -9.41842076059909      5.32495072202954
