603

H     0.218476     3.026628    -0.664618
O     0.740700     2.358114    -1.158128
H     1.679375     2.481991    -0.880422
H    -0.071802    -1.313986     3.162085
O     0.323450    -0.613392     2.620524
H    -0.155001     0.200088     2.852334
H    -2.378993     2.411508    -0.526828
O    -2.170903     1.939488     0.297048
H    -2.189646     0.991896     0.070834
H    -4.652758     0.550092     2.184268
O    -4.971301    -0.382780     2.196347
H    -4.466830    -0.860730     1.529891
H     0.075432    -0.313630     0.964435
O    -0.119729    -0.076504     0.037275
H     0.220331     0.819848    -0.082945
H    -0.156031    -3.584414     3.787098
O    -0.433858    -2.753918     4.207549
H     0.210687    -2.585695     4.911323
H    -4.871010     2.534758     1.333868
O    -4.233305     2.123641     1.949504
H    -3.389890     2.104678     1.437896
H    -3.222640     3.902262    -2.203453
O    -2.486653     3.303768    -1.971077
H    -2.127223     3.015297    -2.830191
H    -0.119542    -3.809395     0.512355
O     0.220949    -2.993007     0.932007
H    -0.566371    -2.505224     1.241873
H    -2.372864    -1.540345     2.475233
O    -2.182188    -2.005930     1.634522
H    -2.438277    -1.418162     0.904668
H     2.087357    -1.450514    -1.105394
O     2.315059    -1.706231    -0.187531
H     1.523585    -2.132740     0.192917
H    -1.379756     1.821008     1.922497
O    -1.472110     1.423108     2.798432
H    -1.459006     2.135210     3.463673
H     0.221001    -2.706614    -1.560158
O    -0.533910    -2.094155    -1.614983
H    -0.354320    -1.368249    -0.980689
H    -3.428079    -2.922950    -0.389269
O    -2.710415    -3.416186    -0.807990
H    -1.998856    -2.786614    -1.024868
H     2.774381     0.114554     2.953495
O     2.877366    -0.067449     3.915186
H     2.968386     0.825319     4.319885
H    -3.503011     6.383591    -0.532913
O    -3.261973     7.046233    -1.231895
H    -3.119017     7.890760    -0.760857
H     3.902946     0.555078     1.219136
O     2.948182     0.388137     1.323191
H     2.712330    -0.362918     0.741103
H    -5.762850     0.850888    -1.604691
O    -4.852110     1.176265    -1.475598
H    -4.962891     2.004546    -0.963775
H    -1.191833     5.393813     2.224678
O    -1.817906     4.647994     2.105793
H    -1.899758     4.229122     2.967806
H     3.427626     2.541287     0.451020
O     3.275325     2.595939    -0.508838
H     3.531327     1.722205    -0.869383
H     1.501449    -4.701724    -2.239868
O     1.566702    -3.925366    -1.665596
H     2.362434    -3.464987    -2.015189
H    -0.903477    -0.086343    -2.538764
O    -0.267362     0.565114    -2.860877
H    -0.007684     1.146697    -2.123060
H     1.704590    -4.693231    -0.167838
O     1.808399    -5.331029     0.574661
H     1.344081    -6.141045     0.276844
H    -1.212901    -3.265160    -2.873675
O    -1.039120    -3.948406    -3.534482
H    -0.915323    -4.795905    -3.065902
H    -2.770800     3.306551     4.713011
O    -1.789379     3.301943     4.681477
H    -1.499853     2.898728     5.518193
H     0.977004     5.025810     4.092837
O     0.031417     5.258894     4.144261
H    -0.442796     4.456601     4.400925
H    -1.724724    -4.651377    -0.367338
O    -0.961220    -5.193764    -0.080974
H    -1.311545    -5.880785     0.495421
H    -3.888118     5.837878    -2.589860
O    -4.239555     5.004512    -2.920771
H    -4.082765     4.970227    -3.888730
H    -2.428616    -3.690691     1.939478
O    -2.449560    -4.595057     2.314770
H    -1.510587    -4.835210     2.456884
H    -4.681453    -2.972727    -2.899607
O    -3.828661    -3.206840    -3.304250
H    -3.500152    -4.001493    -2.839047
H     0.344984     1.368011     4.628774
O     0.855342     2.126833     4.298323
H     0.900931     2.785745     5.005447
H    -4.648058    -5.164158    -1.573720
O    -5.350406    -4.809866    -1.001145
H    -5.139903    -5.165496    -0.116868
H     2.336688    -6.486046    -4.028862
O     1.998414    -6.157926    -3.175581
H     2.430416    -6.733322    -2.512181
H     0.482650    -3.380566    -3.995804
O     1.287316    -3.015132    -4.416430
H     0.970949    -2.641605    -5.265240
H     1.965772    -1.764398     2.996622
O     2.121242    -2.695055     2.778663
H     1.436479    -2.907439     2.109985
H    -2.998380    -1.804925    -3.205743
O    -2.574900    -0.919275    -3.138447
H    -3.228205    -0.272170    -3.459657
H    -3.170233     4.976716     1.089568
O    -3.950402     5.351753     0.633997
H    -4.365856     5.910155     1.339491
H     0.885204     2.244549     2.610317
O     0.987099     2.242782     1.639228
H     1.708886     1.613858     1.473143
H     0.211494     5.654478    -0.739749
O     0.731328     6.316479    -1.250078
H     0.884787     7.112760    -0.691282
H     0.370733     7.030000     2.608300
O     0.007747     6.648445     1.791583
H     0.671790     5.979469     1.527690
H    -2.474021     0.212998     3.347997
O    -2.698174    -0.601083     3.851805
H    -1.939074    -0.642481     4.475021
H    -0.892890     0.546601     6.035939
O    -0.617671     0.027963     5.261368
H     0.093259    -0.577952     5.549195
H     0.708944    -5.002057     1.989003
O     0.165259    -5.110978     2.792607
H     0.307252    -6.032214     3.064023
H    -2.121795    -8.088900     0.448006
O    -1.800167    -7.602260     1.234368
H    -2.586905    -7.290071     1.689016
H    -0.351530     6.863938    -2.309557
O    -1.096188     7.284556    -2.811039
H    -1.886863     7.159539    -2.248392
H    -1.095011     4.307236     0.587295
O    -0.719432     4.367866    -0.307648
H    -1.424923     4.128437    -0.942381
H    -4.398419     2.749064     3.512072
O    -4.397962     2.918695     4.476816
H    -4.484410     2.035525     4.885032
H     2.020664    -3.594845     4.257351
O     1.954386    -4.067795     5.109974
H     2.460195    -3.532387     5.742577
H     4.690891    -3.211549     0.858171
O     4.531672    -3.136051    -0.108474
H     3.674783    -2.654992    -0.193541
H    -2.708454    -0.745989    -1.346211
O    -3.037037    -0.476159    -0.472090
H    -3.836322     0.051045    -0.680271
H    -1.594662    -0.757742    -4.623472
O    -1.086096    -0.542439    -5.426393
H    -0.375382     0.052714    -5.140002
H     1.812730    -1.719329    -3.362968
O     1.904385    -0.973924    -2.738163
H     1.128861    -0.394807    -2.871187
H     3.664091    -3.136236     2.567338
O     4.623171    -3.366388     2.496646
H     4.675790    -4.326930     2.622114
H     3.420858    -6.135309     3.136585
O     3.779121    -5.933332     2.237680
H     3.043110    -5.587045     1.693072
H    -3.319122     1.616706    -4.171499
O    -4.165458     1.147505    -3.982932
H    -4.384614     1.292876    -3.026693
H    -5.062316     4.153207     0.071477
O    -5.502182     3.287959    -0.032849
H    -6.431714     3.408924    -0.316946
H     6.745774    -1.198077    -1.337911
O     5.974009    -1.058042    -0.782664
H     5.552090    -1.927234    -0.598950
H     4.606633    -3.179281    -2.453146
O     3.740278    -3.004466    -2.870309
H     3.743193    -3.621587    -3.627715
H     4.430661    -2.313020     5.641647
O     4.086053    -2.778032     6.434143
H     4.418445    -3.683946     6.351812
H    -0.738327     6.331820     5.090229
O    -1.334721     6.908331     5.627506
H    -1.345438     7.785922     5.186665
H     4.714445    -0.147063    -1.445449
O     3.946615     0.396509    -1.701763
H     3.255631    -0.200482    -2.040548
H    -0.717222     4.523230    -4.023804
O    -1.497089     5.069508    -4.232388
H    -1.343258     5.935551    -3.809037
H     0.683201     3.197793    -2.643452
O     0.686345     3.572689    -3.553273
H     0.736916     2.808415    -4.137876
H    -5.384691    -5.188864     1.790305
O    -4.688446    -5.784725     1.436082
H    -3.847685    -5.370650     1.708736
H     7.895938    -1.690592    -4.006853
O     7.633961    -1.377504    -3.108241
H     7.159923    -0.525826    -3.261721
H     3.715436    -5.078299    -5.275501
O     4.477598    -4.707020    -4.792250
H     4.859346    -5.419650    -4.246737
H    -3.782137     0.017561     4.938844
O    -4.382778     0.482501     5.570871
H    -5.045123    -0.174328     5.860778
H     3.465872    -5.954365    -0.506671
O     4.340181    -5.709063    -0.821555
H     4.417411    -4.746845    -0.677525
H     5.029601    -0.330948    -4.129533
O     4.498936    -1.043748    -4.522482
H     4.165666    -1.627588    -3.808639
H    -1.149609     1.572282    -3.926425
O    -1.798063     2.195148    -4.311831
H    -1.439081     2.526191    -5.157923
H     4.889991    -6.334622    -2.299096
O     5.224336    -6.658820    -3.164423
H     6.040900    -7.141741    -2.976553
H     8.748586    -5.110322    -2.893975
O     8.055746    -5.527455    -2.336840
H     8.088849    -6.484683    -2.440277
H     2.249093     4.655544     0.455730
O     1.707894     4.644143     1.252930
H     1.333938     3.724553     1.328174
H    -4.417057    -2.633403     4.232159
O    -5.309918    -2.291779     4.028448
H    -5.170322    -1.510590     3.453645
H    -5.842614    -3.189518     1.314780
O    -6.307735    -3.746209     1.981816
H    -6.120372    -3.311689     2.833061
H     1.691633     3.455415     6.880630
O     1.071966     3.973523     6.345394
H     0.287693     4.128146     6.915086
H     4.999919    -2.189188     3.636936
O     5.020925    -1.470794     4.301302
H     4.210558    -0.912144     4.143421
H     2.381654    -5.590762     4.850323
O     2.760868    -6.474845     4.590308
H     2.015247    -7.054918     4.413830
H     2.275244    -4.518944    -6.777765
O     2.103385    -5.007770    -5.962940
H     1.838445    -4.316595    -5.307553
H     6.445026    -4.121336    -0.483123
O     7.196545    -4.525643    -0.018345
H     7.704842    -4.948660    -0.738426
H    -1.718829     4.483680     7.712734
O    -0.820093     4.579998     8.099068
H    -0.637974     5.538909     8.125184
H    -5.084255     5.703966    -5.590245
O    -4.478202     4.939251    -5.609703
H    -3.719462     5.152537    -6.174183
H     3.306366    -2.531598    -8.420264
O     3.216500    -3.064067    -7.618988
H     4.092564    -3.041313    -7.188955
H    -0.624700     8.826443    -2.261372
O    -0.502352     9.653249    -1.739959
H     0.258634     9.477614    -1.162219
H     2.065992    -0.925179     5.227613
O     1.491103    -1.450846     5.813193
H     1.582905    -1.106194     6.710874
H     5.229470    -2.030677    -5.671427
O     5.571579    -2.798443    -6.193015
H     5.295158    -3.588098    -5.676517
H     5.687520    -5.235232     4.704537
O     5.163916    -5.149207     5.530230
H     4.441604    -5.780145     5.443478
H    -3.973826     1.145047     7.011893
O    -3.782182     1.620132     7.856243
H    -4.658042     2.007374     8.115678
H    -1.818571     9.614608    -0.730084
O    -2.680169     9.489766    -0.256978
H    -3.289236     10.119671    -0.645872
H    -5.921348     4.699444    -2.935033
O    -6.829702     4.582134    -3.280696
H    -6.739339     3.880200    -3.958255
H     0.095574    -7.068248    -1.137396
O     0.557371    -7.505434    -0.388860
H    -0.123701    -7.699768     0.258164
H    -7.614111     3.803697    -1.973803
O    -7.877861     3.216670    -1.234565
H    -7.736142     2.307971    -1.574663
H     3.968611    -0.910744     7.006552
O     3.979271     0.053415     6.996692
H     4.793923     0.341453     6.568629
H     2.200405     5.814568    -1.256614
O     3.139493     5.519407    -1.137490
H     3.288366     4.940000    -1.918502
H     6.549631    -5.948492     0.691598
O     6.178639    -6.683881     1.224838
H     5.273968    -6.405252     1.449301
H    -3.861930     4.727915     7.788413
O    -3.294659     4.264278     7.130496
H    -3.490795     3.321259     7.239671
H     5.758370    -7.962192     0.154621
O     5.470394    -8.648283    -0.483811
H     4.642730    -8.320769    -0.879621
H    -0.557077     2.033662     7.705821
O    -1.188759     1.970877     6.969265
H    -2.058433     1.830725     7.363818
H    -6.373832    -0.113568     1.062082
O    -6.691745    -0.196082     0.148345
H    -7.611100    -0.464945     0.163678
H    -5.364776    -3.057015    -0.589145
O    -5.112529    -2.355726     0.037670
H    -5.680762    -1.581676    -0.150605
H     4.167643     5.542512     0.277571
O     4.635350     5.640657     1.130179
H     4.028432     6.240252     1.612333
H    -9.031019    -1.729380    -2.260255
O    -8.484354    -1.529558    -1.472942
H    -8.614291    -2.266501    -0.836159
H    -5.495434     3.481908    -5.523886
O    -6.014817     2.771871    -5.110571
H    -5.350048     2.184829    -4.696197
H     3.206793    -0.890828    -5.637859
O     2.350593    -1.013077    -6.101428
H     2.436445    -1.860886    -6.577105
H     8.136568    -1.362326    -6.000800
O     8.142483    -2.226038    -5.543293
H     7.287189    -2.625538    -5.796975
H     7.649659     0.975679    -6.275940
O     7.458652     0.130778    -6.695331
H     6.477374     0.082587    -6.731799
H    -7.857836    -3.681940     0.923981
O    -8.534669    -3.573194     0.238351
H    -8.436766    -4.332354    -0.363729
H    -2.380073     8.737071     1.306253
O    -2.230788     8.147599     2.059009
H    -1.461146     7.593910     1.836581
H    -4.425450     6.438946     3.504896
O    -4.593221     6.865728     2.648328
H    -3.828492     7.450286     2.510342
H     3.396830     3.401918    -3.565733
O     3.192533     4.368484    -3.555358
H     2.218821     4.341657    -3.663703
H    -6.100406    -1.595163    -3.443204
O    -6.185906    -2.174679    -2.659660
H    -6.970359    -1.866307    -2.152480
H     6.473087     1.030748     4.767689
O     6.077801     1.574733     5.465789
H     6.270950     2.491358     5.171982
H     1.387963     1.719492    -5.807307
O     1.187840     1.123537    -5.054480
H     1.554402     0.261154    -5.321560
H    -2.491913     2.958187     10.493103
O    -2.280684     2.050499     10.219307
H    -2.877718     1.852378     9.485959
H     7.631582    -0.529376     3.117611
O     6.885473     0.049490     3.293368
H     6.188754    -0.549974     3.669295
H    -5.661794    -8.046616    -0.705777
O    -4.928226    -8.117097    -0.058073
H    -4.931606    -7.300195     0.464494
H    -5.157067    -0.109324    -4.713374
O    -5.775069    -0.819818    -4.954628
H    -6.611968    -0.376415    -5.154131
H     1.916480    -0.201538    -7.498948
O     1.716279     0.269724    -8.343176
H     2.294413    -0.135110    -8.995255
H     4.899471    -1.401416    -9.283490
O     3.974898    -1.172109    -9.567427
H     3.956965    -1.287556    -10.516786
H     7.561791    -2.596184     4.226098
O     7.708135    -2.629456     3.266347
H     7.216173    -3.420782     2.993004
H     6.715147    -5.914552     2.705071
O     6.777261    -5.239696     3.406657
H     7.651793    -5.327901     3.826664
H    -1.796694     8.945671     3.510916
O    -1.549639     9.248885     4.409963
H    -2.398864     9.383732     4.863897
H    -7.365584     1.581997    -5.251656
O    -7.942205     0.838788    -5.007955
H    -8.843343     1.240015    -4.933580
H     6.951552    -1.093005    -8.379938
O     6.370170    -1.814134    -8.644739
H     6.139836    -2.263016    -7.813040
H    -1.639428     6.244665    -7.010514
O    -2.040280     5.420521    -6.737815
H    -1.794319     5.289105    -5.773718
H     0.001441     3.302346     9.037236
O     0.196463     2.382090     9.292209
H    -0.603367     2.119117     9.796984
H     6.767588    -2.791177    -2.684623
O     6.237776    -3.534900    -2.342211
H     6.704214    -4.346649    -2.589766
H    -4.062323    -3.065338    -4.941450
O    -4.214402    -2.951916    -5.906476
H    -4.760135    -2.157867    -5.963335
H     1.979220     2.171576     8.482504
O     2.644751     2.282537     7.793751
H     3.064781     1.411201     7.678957
H    -6.903774    -5.190576    -1.400115
O    -7.819374    -5.458257    -1.647528
H    -7.950533    -5.054949    -2.530524
H    -3.815404     5.257407     5.705663
O    -3.779944     6.025870     5.115078
H    -2.845738     6.318705     5.211075
H    -7.869684     0.101301    -1.969120
O    -7.377656     0.824242    -2.381106
H    -7.604044     0.814332    -3.334846
H     5.820343    -0.070852     0.506002
O     5.598857     0.653097     1.127477
H     6.117811     0.470479     1.946039
H    -6.210905     3.316576     7.398856
O    -6.085591     2.797567     8.227411
H    -6.687335     2.037583     8.137569
H     2.274582    -8.081619    -0.832475
O     2.953592    -8.069941    -1.526764
H     2.728706    -8.782874    -2.141229
H    -2.728717    -3.955767    -6.192960
O    -1.976833    -4.523847    -5.959977
H    -1.701487    -4.233157    -5.062256
H    -5.634391     3.767124     5.313156
O    -6.283640     4.164499     5.929624
H    -6.118827     5.108327     5.916537
H    -1.014593    -7.113941    -3.157512
O    -0.541740    -6.445587    -2.627849
H     0.366409    -6.377400    -3.007408
H     4.450171     2.002054     5.151566
O     3.509413     2.243858     5.028719
H     3.122516     2.258871     5.909526
H     4.116085     4.641034     6.326508
O     4.204603     5.367724     5.705360
H     3.633861     5.131227     4.935794
H     2.775199     3.607015     3.937033
O     2.603683     4.547934     3.769006
H     2.490799     4.649710     2.803214
H     9.409206     0.187884    -1.036612
O     8.607247     0.344151    -0.534782
H     8.428441    -0.481414    -0.054157
H    -2.099128     5.316465     10.662399
O    -2.822653     4.689071     10.892023
H    -3.042865     4.866610     11.806696
H     7.976934    -3.032815     0.353831
O     8.398852    -2.187297     0.611844
H     8.332278    -2.184076     1.574051
H     5.384948     3.648332     3.541825
O     6.041284     3.918210     4.207554
H     5.619416     4.622912     4.720834
H    -4.205995     5.023437     9.792267
O    -4.837140     5.175942     9.068883
H    -5.450801     4.428800     9.065068
H    -6.999532    -3.465450    -3.488525
O    -7.620356    -4.075906    -3.938375
H    -7.098848    -4.518530    -4.639894
H     0.030951     6.120994     10.786907
O    -0.832630     6.453721     10.537960
H    -0.714470     6.884762     9.672232
H     2.615144     1.493445    -4.081573
O     3.489742     1.852317    -3.841789
H     3.814839     1.337665    -3.074669
H    -6.975490    -0.210720     7.219004
O    -7.482676     0.568922     7.498696
H    -8.104538     0.753695     6.793785
H    -2.749364    -9.870888    -0.829035
O    -2.683932    -8.929249    -0.987998
H    -3.589589    -8.561106    -0.748923
H    -10.042048     3.095901    -4.902568
O    -10.161460     2.178537    -4.622495
H    -10.378739     2.262552    -3.673114
H    -2.071666    -3.025991     4.620867
O    -2.947483    -3.464459     4.688844
H    -2.941309    -4.081792     3.932139
H    -0.187388    -7.987359     2.492679
O     0.638603    -7.778631     2.942109
H     1.357335    -8.075708     2.356453
H     6.699397    -2.398261     6.418260
O     7.148204    -3.107369     5.953107
H     6.517591    -3.841645     5.913453
H    -5.278271    -1.998796     6.945394
O    -5.952579    -1.499006     6.460456
H    -5.935588    -1.875686     5.551134
H     0.862949     3.030869    -7.100307
O     1.780136     2.698927    -7.154010
H     1.768129     1.951968    -7.780283
H    -3.937869     8.759271     6.682491
O    -3.932898     8.757424     5.725143
H    -4.060288     7.830427     5.456680
H    -2.022037     10.316788    -2.723288
O    -2.923154     10.500542    -3.025359
H    -2.849469     11.134127    -3.738414
H     9.407023    -4.087507     4.072689
O     9.123176    -4.765023     4.694012
H     8.694276    -4.291937     5.417996
H    -0.723688    -5.995419    -5.833261
O    -0.021927    -6.563327    -5.498510
H     0.814872    -6.103378    -5.714647
H     1.856448     8.262380     0.688726
O     1.548301     8.587441    -0.183642
H     2.360695     8.620446    -0.723280
H     3.522752     2.920142    -6.644666
O     4.347340     2.616894    -6.239417
H     4.107164     2.358233    -5.324522
H     3.744483     7.147992    -1.350352
O     3.922718     8.107937    -1.459725
H     4.140301     8.155686    -2.406834
H     4.421784    -0.018673    -7.892791
O     4.797049     0.124204    -7.022131
H     4.613380     1.056061    -6.776755
H     6.155451     1.776963    -0.260608
O     6.686156     2.021455    -1.038957
H     7.499442     1.495205    -0.885671
H     6.681501    -8.447958    -1.587213
O     7.319246    -8.237705    -2.322259
H     7.684088    -9.072416    -2.611188
H    -5.291241    -5.777654    -5.408282
O    -5.906586    -5.104229    -5.723573
H    -5.353476    -4.337053    -5.959135
H     0.694697     7.166748     7.618111
O    -0.207313     7.195182     7.976130
H    -0.761369     7.211655     7.157636
H    -8.884201    -2.816404    -4.107582
O    -9.403217    -2.006901    -3.940430
H    -9.114959    -1.342337    -4.569896
H    -2.406416    -5.985360    -2.139194
O    -3.283575    -5.697184    -2.409006
H    -3.469907    -6.070707    -3.295465
H    -2.976778    -5.893525    -5.405992
O    -3.578635    -6.502422    -4.935050
H    -3.098664    -7.323809    -4.768316
H    -1.360895     3.730051    -6.971268
O    -0.823559     2.972776    -6.698788
H    -1.059692     2.188446    -7.250150
H    -0.176436     0.419312    -8.203682
O    -1.072685     0.655823    -7.921943
H    -1.250056     0.132314    -7.124459
H    -10.398512     4.073095    -2.738347
O    -10.468485     3.294400    -2.170543
H    -9.639991     3.266138    -1.660371
H     4.551432     4.041066     1.754787
O     4.425288     3.128089     2.111485
H     5.159349     2.599422     1.787319
H     6.448937     1.440254    -4.142074
O     6.181713     0.786128    -3.459445
H     6.188599     1.235831    -2.596306
H     9.640859    -2.250473    -0.903001
O     9.917983    -2.036237    -1.802562
H     9.120591    -1.690133    -2.245521
H     9.979467    -3.343166    -3.070931
O     9.711412    -3.993966    -3.746705
H     9.320874    -3.484089    -4.467174
H    -7.701178    -8.560990    -1.672904
O    -6.961953    -7.967939    -1.799227
H    -7.337911    -7.054207    -1.789600
H     3.765636     6.741007    -4.315709
O     4.503129     7.339287    -4.149790
H     5.252782     6.719928    -4.081507
H     0.102788    -8.170214    -5.208142
O     0.124325    -9.153290    -5.076872
H     0.275588    -9.516793    -5.949411
H    -2.333360    -8.670285    -2.713030
O    -2.097310    -8.406182    -3.621896
H    -1.451399    -9.025696    -3.980127
H     2.180252    -10.821494    -3.486759
O     2.135708    -9.866908    -3.461393
H     1.351937    -9.594175    -3.989092
H     6.863991     3.438988    -4.847501
O     6.854908     2.610950    -5.361706
H     6.027564     2.689756    -5.870088
H    -3.575580    -3.721807     7.725057
O    -3.686449    -2.933318     7.195297
H    -3.434389    -3.172596     6.277258
H    -0.620065    -3.359903    -6.715189
O     0.011814    -2.629912    -6.720623
H    -0.469050    -1.853533    -6.379762
H     0.637447     0.452624     8.766863
O     0.644684    -0.261602     8.125659
H    -0.277995    -0.548677     8.036375
H    -5.800535     7.380085    -4.245314
O    -6.303877     6.762499    -4.807395
H    -6.593252     6.031906    -4.217050
H    -4.243332     9.111438    -3.253791
O    -4.781077     8.316540    -3.148319
H    -4.374550     7.835825    -2.409177
H    -9.680624     5.816866    -4.647276
O    -10.215845     5.013124    -4.485141
H    -11.095391     5.215824    -4.805708
H     2.782382     6.506031     6.160716
O     1.822475     6.603439     6.255671
H     1.477319     5.690649     6.153603
H     4.771144     8.643324     0.094681
O     5.037230     8.797501     1.025015
H     5.668464     8.090951     1.194967
H     4.147849    -7.434128    -4.327479
O     3.390111    -7.717068    -4.871194
H     3.107646    -8.557823    -4.496259
H     0.404286     8.655790     4.243409
O     1.082688     8.011325     4.016216
H     1.302956     7.517142     4.831465
H     5.178914     4.628693    -3.823960
O     6.101797     4.918235    -3.829699
H     6.355324     4.907182    -2.874603
H    -2.583613    -1.545579     7.580395
O    -2.072111    -0.753351     7.801431
H    -2.697279    -0.126190     8.175183
H    -8.993419     7.955547    -4.145691
O    -8.930220     7.370694    -4.902262
H    -7.973205     7.205096    -5.036129
H     3.521719    -8.990611     1.103026
O     2.846201    -8.357704     1.352153
H     3.322127    -7.553603     1.633046
H     3.624518     8.162949     1.830561
O     2.860740     7.570672     1.962324
H     2.401500     7.821364     2.776706
N     6.864107     4.762826    -1.201044
H     6.375171     5.136389    -0.458883
H     6.865106     3.793628    -1.051605
