33
Coordinates from ORCA-job grain_mol_opt.QMRegion
  H   7.80817880532662      0.97310314589279     -6.37141726650166
  O   7.51126717118070      0.16545730843446     -6.80142109369868
  H   6.52976538540186      0.22479965482769     -6.83037541202599
  H   3.25000010385584      3.58549620036076     -3.58943237149645
  O   3.07151427398538      4.55391304852473     -3.56124245955723
  H   2.09341959185159      4.54413305069647     -3.57268431182111
  H   2.48814569518434      1.55320880189003     -4.11953185526702
  O   3.36235222358269      1.92157762300744     -3.86491697710804
  H   3.69649203801699      1.36352029257884     -3.13150042177954
  H   0.67739229371852      2.94280712549298     -7.13263937964861
  O   1.60760491780877      2.63958909204208     -7.23652283361855
  H   1.57809019819118      1.85449284563790     -7.82511994584101
  H   3.26566174373577      2.89567136318630     -6.66376284729333
  O   4.16910116481543      2.71437508544887     -6.34011989908540
  H   4.01681319383105      2.40481215029986     -5.42008453126046
  H   4.43188224152952     -0.00359593906827     -8.00485988276093
  O   4.78244197953385      0.19358208403831     -7.12990719252874
  H   4.50530437135985      1.11523543636513     -6.94064365364781
  H   6.54062384115916      1.50794786515207     -4.16633488604435
  O   6.18018603683564      0.85120660711751     -3.53403692530150
  H   6.21323585702270      1.28229639581451     -2.65857603084614
  H   4.15985288726506      6.12787874272999     -3.81423186503976
  O   4.91707140247867      6.73944259474618     -3.79703162926921
  H   5.53715218946305      6.28191379617908     -3.20959773737678
  H   7.54189710786934      3.30630820897503     -4.15748565767470
  O   7.39735248635835      2.84316704232875     -4.99378188474774
  H   6.89788983469548      3.53253340853179     -5.49627208768938
  H   5.36048630367507      4.04954241256962     -2.98605622408933
  O   6.20534723443613      4.35841751566220     -2.63995910527149
  H   6.40270332908282      3.70431125584656     -1.94615627607847
  O   5.92782198793525      4.85263542471835     -6.17291919635099
  H   5.13617130071882      4.28846155381597     -6.26727393790959
  H   5.68155634467651      5.54164107106747     -5.53687703437566
