18
Coordinates from ORCA-job grain_mol_opt.QMRegion
  H   -2.17815022694807     -7.98812597311256      0.48142771997476
  O   -1.78132683012358     -7.52965653666908      1.25271667762603
  H   -2.50944575332803     -7.18865599091211      1.77562470228646
  H   -5.96594664997171     -7.94738020797649     -0.49524150931171
  O   -5.09808859498186     -8.00836243998483     -0.02404790215441
  H   -5.05885705552287     -7.23986146646943      0.57459176444377
  H   -2.94684930873905     -9.63032215106495     -0.70705962800458
  O   -2.70614298481665     -8.76257943887233     -1.08058902747798
  H   -3.56589661887758     -8.29401700588144     -1.01087706812053
  H   -8.16729866942083     -8.32502456377060     -0.85219640558203
  O   -7.43850792053442     -7.99071581119751     -1.38267342434489
  H   -7.68229807622164     -7.04119904647826     -1.54156062602482
  H   -2.26076121379184     -8.73931760058141     -2.85361839770203
  O   -2.04882642983904     -8.40213840157728     -3.74436673982433
  H   -1.36773732240626     -8.95962522872100     -4.14772712167257
  O   -4.05549255696287    -10.56016234812130      0.53302094297592
  H   -4.61428430929826    -11.29678933463974      0.27114847760314
  H   -4.64349425577175     -9.77897235839100      0.52390869802128
