27
Coordinates from ORCA-job grain_mol_opt.QMRegion
  H   -3.99282836957599      5.71440817111407     -2.47360649994345
  O   -4.32572543488180      4.91611902662715     -2.88968774116853
  H   -4.12205853583879      4.93787186269289     -3.86042419634681
  H   -0.34291835066048      6.85787063542597     -2.29797912454558
  O   -1.09630957807566      7.26446876560763     -2.80998349237912
  H   -1.87159004438184      7.11906694396195     -2.22845766707338
  H   -0.61476337197067      4.47649660550040     -4.07414798467668
  O   -1.41628832347194      4.99670896834283     -4.29315526804482
  H   -1.27802184879491      5.84913387402060     -3.84205924959686
  H   -5.07073534010201      5.56235817202830     -5.65449784679277
  O   -4.48477008533338      4.79470126937254     -5.55759449772631
  H   -3.69406558131504      4.93630799576128     -6.13493171434783
  H   -2.29335438379457      6.20708172477110     -6.97932404722595
  O   -2.19104039049203      5.27170811158364     -6.77289142514443
  H   -1.77607601516295      5.24833978433717     -5.86304948943125
  H   -1.91933377465584     10.36240060520923     -2.77695020591378
  O   -2.79790974882127     10.58773807876923     -3.13371025528851
  H   -2.60985910893462     10.97788018505408     -3.99189090402800
  H   -5.96747168639642      7.27537221792086     -4.29314607079749
  O   -6.43051573236815      6.64160214904232     -4.86131341351932
  H   -6.70551854151441      5.90207869927977     -4.25265634019156
  H   -3.92439980741583      9.12873269198770     -3.39646478122431
  O   -4.38965996296858      8.27302073586908     -3.49991003633459
  H   -4.09443555550472      7.78148981677651     -2.71485885097459
  O   -3.47958009048859      7.87156783563797     -6.25915377246634
  H   -3.68212346344554      7.90893162021323     -5.30733555878760
  H   -4.27514066700576      8.20615782555381     -6.68327558202406
