603

H     0.205500     3.029903    -0.664806
O     0.728545     2.361565    -1.157923
H     1.667259     2.490386    -0.884416
H    -0.072911    -1.313468     3.158591
O     0.320861    -0.612217     2.616951
H    -0.158201     0.200746     2.849294
H    -2.393522     2.409652    -0.523036
O    -2.183095     1.937353     0.300110
H    -2.200150     0.989945     0.073080
H    -4.659178     0.542754     2.190760
O    -4.975412    -0.390939     2.203615
H    -4.471965    -0.867435     1.535343
H     0.068717    -0.311933     0.961268
O    -0.128827    -0.074183     0.034846
H     0.210164     0.822728    -0.084948
H    -0.152309    -3.584771     3.782171
O    -0.430226    -2.755328     4.204867
H     0.216275    -2.587796     4.906635
H    -4.882333     2.527447     1.342020
O    -4.242853     2.116791     1.956246
H    -3.400344     2.099930     1.443030
H    -3.243252     3.899381    -2.197398
O    -2.505882     3.301787    -1.966955
H    -2.147273     3.015262    -2.827021
H    -0.121174    -3.807826     0.508417
O     0.218748    -2.991051     0.927871
H    -0.568898    -2.504764     1.239173
H    -2.375227    -1.543780     2.476153
O    -2.184762    -2.008567     1.635089
H    -2.443466    -1.421049     0.905905
H     2.077332    -1.444590    -1.112430
O     2.308531    -1.698366    -0.195018
H     1.519175    -2.126846     0.187533
H    -1.388162     1.818872     1.923133
O    -1.478025     1.420813     2.799329
H    -1.465416     2.133348     3.463810
H     0.212861    -2.703684    -1.563749
O    -0.542769    -2.091979    -1.617342
H    -0.363328    -1.366230    -0.982848
H    -3.433343    -2.926736    -0.386591
O    -2.715385    -3.418485    -0.806575
H    -2.005482    -2.787507    -1.024699
H     2.775370     0.120282     2.944246
O     2.873998    -0.062152     3.906438
H     2.965238     0.830772     4.309938
H    -3.524392     6.379431    -0.525500
O    -3.285310     7.042676    -1.224769
H    -3.143883     7.887319    -0.753420
H     3.905504     0.578777     1.197703
O     2.955178     0.396208     1.314772
H     2.717540    -0.354264     0.732814
H    -5.776819     0.843658    -1.595615
O    -4.866324     1.170391    -1.467989
H    -4.977533     1.998396    -0.955731
H    -1.207843     5.393012     2.226092
O    -1.831654     4.644892     2.108473
H    -1.911615     4.226763     2.970828
H     3.497705     2.758871     0.439965
O     3.250154     2.717677    -0.499163
H     3.582652     1.875747    -0.851389
H     1.495157    -4.696671    -2.246727
O     1.559884    -3.920301    -1.672361
H     2.354543    -3.458804    -2.022979
H    -0.917431    -0.083729    -2.539084
O    -0.282611     0.568727    -2.861909
H    -0.022633     1.150338    -2.124294
H     1.702709    -4.688296    -0.175347
O     1.809060    -5.326137     0.566771
H     1.345805    -6.136954     0.269339
H    -1.222545    -3.264076    -2.875020
O    -1.048636    -3.946654    -3.536457
H    -0.922717    -4.794251    -3.068577
H    -2.778913     3.302057     4.715478
O    -1.797055     3.298819     4.683643
H    -1.507532     2.894421     5.518321
H     0.967811     5.024928     4.091471
O     0.022249     5.257786     4.146145
H    -0.452670     4.455176     4.399043
H    -1.726907    -4.652361    -0.368525
O    -0.961888    -5.193314    -0.083517
H    -1.309966    -5.881479     0.492881
H    -3.912647     5.834233    -2.581385
O    -4.263010     5.000419    -2.912363
H    -4.108208     4.967172    -3.880645
H    -2.427779    -3.694053     1.939841
O    -2.446367    -4.598288     2.315551
H    -1.506688    -4.837184     2.455070
H    -4.691502    -2.977353    -2.894357
O    -3.838942    -3.209755    -3.300530
H    -3.508370    -4.004195    -2.836425
H     0.340398     1.368109     4.625800
O     0.849741     2.126359     4.293664
H     0.902514     2.787439     4.998788
H    -4.651753    -5.169633    -1.569501
O    -5.353481    -4.816690    -0.995335
H    -5.140758    -5.172538    -0.111714
H     2.330277    -6.479252    -4.038094
O     1.993220    -6.151526    -3.184149
H     2.427326    -6.726466    -2.521685
H     0.471015    -3.376175    -4.000474
O     1.273905    -3.008635    -4.422749
H     0.954673    -2.636037    -5.270927
H     1.966066    -1.759856     2.988429
O     2.121546    -2.690709     2.771451
H     1.436317    -2.903858     2.103441
H    -3.010895    -1.806467    -3.203299
O    -2.588613    -0.920145    -3.136665
H    -3.243879    -0.273966    -3.455871
H    -3.186290     4.972653     1.095298
O    -3.968101     5.346402     0.641493
H    -4.382974     5.903786     1.348540
H     0.879529     2.247101     2.603502
O     0.980753     2.243878     1.632489
H     1.707578     1.620828     1.467320
H     0.194845     5.655847    -0.740874
O     0.717090     6.318043    -1.248565
H     0.858833     7.117409    -0.691989
H     0.346682     7.030654     2.610430
O    -0.014950     6.650167     1.792695
H     0.649778     5.980864     1.530305
H    -2.477601     0.209015     3.349715
O    -2.700121    -0.605550     3.853618
H    -1.939177    -0.647787     4.474170
H    -0.898991     0.536481     6.031818
O    -0.616581     0.021661     5.257712
H     0.096938    -0.581092     5.544923
H     0.712193    -4.999690     1.983097
O     0.170434    -5.109808     2.787907
H     0.314306    -6.031146     3.058210
H    -2.116357    -8.091008     0.446330
O    -1.794127    -7.603878     1.232188
H    -2.580634    -7.293467     1.688438
H    -0.374556     6.864876    -2.306563
O    -1.120931     7.285354    -2.805224
H    -1.910951     7.158639    -2.241682
H    -1.109381     4.307067     0.588869
O    -0.736064     4.368645    -0.306993
H    -1.442813     4.128237    -0.939880
H    -4.406267     2.741216     3.519218
O    -4.403001     2.909695     4.484192
H    -4.488714     2.026344     4.891930
H     2.026237    -3.591525     4.249004
O     1.961686    -4.063422     5.102466
H     2.471282    -3.528927     5.732668
H     4.690925    -3.199230     0.845079
O     4.530409    -3.122174    -0.121144
H     3.671561    -2.644741    -0.204209
H    -2.719193    -0.748209    -1.343819
O    -3.046491    -0.479373    -0.468927
H    -3.847008     0.046747    -0.675342
H    -1.612617    -0.756417    -4.623162
O    -1.105321    -0.539641    -5.426594
H    -0.395602     0.056548    -5.140514
H     1.798810    -1.713013    -3.369598
O     1.891062    -0.967278    -2.745110
H     1.113837    -0.389780    -2.875694
H     3.665555    -3.129316     2.556431
O     4.624720    -3.357698     2.484138
H     4.679520    -4.318223     2.608555
H     3.428311    -6.128985     3.124839
O     3.784180    -5.926234     2.225274
H     3.046580    -5.580684     1.682368
H    -3.339436     1.615267    -4.166490
O    -4.184262     1.144201    -3.976464
H    -4.402093     1.288830    -3.019762
H    -5.078572     4.146211     0.081216
O    -5.517128     3.280191    -0.023050
H    -6.447481     3.399899    -0.305067
H     6.737451    -1.184243    -1.354106
O     5.965464    -1.035333    -0.801664
H     5.546243    -1.903335    -0.605880
H     4.597159    -3.169429    -2.464745
O     3.729225    -2.997401    -2.880288
H     3.732528    -3.614993    -3.637463
H     4.437606    -2.304155     5.628787
O     4.093868    -2.769063     6.422181
H     4.428424    -3.674331     6.339758
H    -0.751551     6.330399     5.092233
O    -1.348131     6.902315     5.632370
H    -1.360180     7.781145     5.195446
H     4.702159    -0.138323    -1.456588
O     3.934654     0.404574    -1.717958
H     3.242333    -0.195265    -2.049788
H    -0.737848     4.526999    -4.021680
O    -1.520564     5.070217    -4.228940
H    -1.369175     5.936416    -3.805349
H     0.663757     3.204795    -2.644233
O     0.671479     3.582691    -3.552137
H     0.718486     2.820082    -4.138763
H    -5.381662    -5.197299     1.795817
O    -4.684921    -5.791739     1.440182
H    -3.844436    -5.376274     1.711353
H     7.884711    -1.689709    -4.025706
O     7.626728    -1.377552    -3.125645
H     7.140247    -0.533320    -3.281317
H     3.703842    -5.068700    -5.287188
O     4.466299    -4.696144    -4.805416
H     4.850652    -5.408134    -4.260823
H    -3.782690     0.009832     4.943011
O    -4.381455     0.472923     5.578250
H    -5.043381    -0.184644     5.867727
H     3.466406    -5.945393    -0.518067
O     4.339468    -5.697959    -0.834697
H     4.415719    -4.735786    -0.690329
H     5.004118    -0.334228    -4.151061
O     4.468584    -1.044952    -4.541776
H     4.142407    -1.629238    -3.824781
H    -1.168519     1.575084    -3.925429
O    -1.818812     2.196488    -4.309928
H    -1.461371     2.529162    -5.155933
H     4.887160    -6.323040    -2.313598
O     5.219901    -6.646808    -3.179672
H     6.037785    -7.128236    -2.993718
H     8.742601    -5.093079    -2.914768
O     8.051229    -5.511327    -2.356869
H     8.085608    -6.468525    -2.460341
H     2.342288     4.716622     0.467425
O     1.764296     4.696849     1.239562
H     1.405548     3.777026     1.314699
H    -4.413623    -2.641533     4.236535
O    -5.307402    -2.301134     4.035240
H    -5.170588    -1.519689     3.460050
H    -5.844077    -3.198491     1.321952
O    -6.306673    -3.756449     1.989698
H    -6.118768    -3.321962     2.840755
H     1.771133     3.458190     6.812093
O     1.173365     3.984126     6.254265
H     0.351520     4.123691     6.777662
H     5.003258    -2.178493     3.623565
O     5.023028    -1.460981     4.288849
H     4.211915    -0.904368     4.131302
H     2.391046    -5.586761     4.840887
O     2.771408    -6.469832     4.580050
H     2.026712    -7.051378     4.404476
H     2.259457    -4.510608    -6.786738
O     2.090328    -4.999825    -5.971603
H     1.825668    -4.309374    -5.315433
H     6.441986    -4.107023    -0.499103
O     7.194959    -4.510621    -0.035911
H     7.702399    -4.932670    -0.757062
H    -1.756327     4.449850     7.549921
O    -0.835272     4.538002     7.899989
H    -0.672551     5.499346     8.033884
H    -5.114288     5.699759    -5.579700
O    -4.506657     4.936254    -5.600852
H    -3.749542     5.151250    -6.166781
H     3.284155    -2.520163    -8.430699
O     3.196325    -3.053497    -7.629837
H     4.073024    -3.030127    -7.201134
H    -0.655095     8.827853    -2.257699
O    -0.531952     9.655632    -1.737906
H     0.230115     9.480563    -1.161161
H     2.068738    -0.923279     5.216840
O     1.496861    -1.447573     5.807170
H     1.597551    -1.104725     6.703455
H     5.208423    -2.021000    -5.686089
O     5.554545    -2.786723    -6.208872
H     5.280455    -3.577258    -5.692373
H     5.696565    -5.224499     4.689776
O     5.173659    -5.139462     5.516178
H     4.453095    -5.772495     5.430213
H    -3.973661     1.134041     7.018216
O    -3.777807     1.606087     7.863610
H    -4.652808     1.995739     8.125617
H    -1.846764     9.614133    -0.724243
O    -2.707217     9.486772    -0.250222
H    -3.318332     10.116208    -0.636613
H    -5.944616     4.692480    -2.923529
O    -6.853321     4.573789    -3.267709
H    -6.763044     3.872331    -3.945744
H     0.095919    -7.065769    -1.142822
O     0.560055    -7.502229    -0.395327
H    -0.119377    -7.698286     0.252891
H    -7.634076     3.793346    -1.959549
O    -7.895144     3.205413    -1.220112
H    -7.752643     2.297176    -1.561058
H     3.973708    -0.898715     6.995987
O     3.983040     0.065823     6.989368
H     4.795628     0.352779     6.555733
H     2.262203     5.794995    -1.162728
O     3.197543     5.501385    -1.048443
H     3.374195     4.962846    -1.842736
H     6.552097    -5.934858     0.674405
O     6.183423    -6.671549     1.207578
H     5.278751    -6.394819     1.434127
H    -3.864787     4.718748     7.799585
O    -3.308965     4.253886     7.130968
H    -3.501852     3.311051     7.244182
H     5.763494    -7.950043     0.137892
O     5.475453    -8.636371    -0.500298
H     4.646393    -8.310288    -0.894293
H    -0.658073     1.923249     7.674812
O    -1.293669     1.889604     6.944877
H    -2.157155     1.713864     7.342130
H    -6.381092    -0.123163     1.071878
O    -6.700457    -0.206182     0.158758
H    -7.619463    -0.476204     0.175694
H    -5.370154    -3.064161    -0.582615
O    -5.117756    -2.362744     0.044029
H    -5.687792    -1.589621    -0.142762
H     4.321515     5.574047     0.336873
O     4.654605     5.672674     1.242622
H     3.960627     6.184078     1.694623
H    -9.041925    -1.741968    -2.246033
O    -8.493854    -1.541734    -1.459776
H    -8.621504    -2.279112    -0.823050
H    -5.521337     3.477077    -5.513917
O    -6.038675     2.765881    -5.100066
H    -5.372208     2.179836    -4.687120
H     3.182776    -0.884761    -5.646831
O     2.326755    -1.004174    -6.112561
H     2.412230    -1.852553    -6.587167
H     8.116778    -1.346952    -6.021029
O     8.124716    -2.211368    -5.565346
H     7.268578    -2.610992    -5.816659
H     7.623382     0.993992    -6.299299
O     7.434278     0.146055    -6.713203
H     6.452932     0.096397    -6.749747
H    -7.859225    -3.694244     0.935010
O    -8.537429    -3.586146     0.250682
H    -8.439596    -4.344916    -0.351906
H    -2.403804     8.734083     1.312920
O    -2.253318     8.143916     2.064696
H    -1.482714     7.591855     1.841506
H    -4.440495     6.431087     3.514201
O    -4.610624     6.856815     2.657472
H    -3.847812     7.443833     2.519027
H     3.403943     3.447680    -3.563652
O     3.250822     4.416790    -3.468681
H     2.286009     4.481882    -3.576668
H    -6.113879    -1.602058    -3.434510
O    -6.196673    -2.182095    -2.651070
H    -6.980827    -1.875492    -2.142277
H     6.469182     1.039359     4.752127
O     6.074431     1.578196     5.454879
H     6.264386     2.496785     5.163782
H     1.364186     1.726551    -5.811003
O     1.169760     1.129894    -5.057279
H     1.532870     0.267029    -5.328276
H    -2.517099     2.871512     10.612092
O    -2.285694     1.965184     10.313948
H    -2.884679     1.805489     9.569559
H     7.629655    -0.504558     3.092655
O     6.879416     0.070260     3.263634
H     6.187566    -0.531637     3.640744
H    -5.658880    -8.054254    -0.700888
O    -4.923842    -8.123700    -0.054706
H    -4.927676    -7.307122     0.468316
H    -5.175499    -0.113869    -4.705759
O    -5.792661    -0.825329    -4.946194
H    -6.630769    -0.383309    -5.143794
H     1.891937    -0.192304    -7.505706
O     1.690475     0.280626    -8.348995
H     2.266930    -0.124045    -9.002647
H     4.873918    -1.385842    -9.296179
O     3.948767    -1.156515    -9.578007
H     3.928567    -1.273065    -10.527216
H     7.565458    -2.580508     4.206873
O     7.711515    -2.614654     3.247258
H     7.218984    -3.405662     2.974297
H     6.721305    -5.902063     2.687869
O     6.783075    -5.227815     3.390024
H     7.659170    -5.313613     3.807372
H    -1.817505     8.942338     3.517589
O    -1.568418     9.246287     4.415539
H    -2.416530     9.378112     4.872572
H    -7.387928     1.573778    -5.239012
O    -7.962724     0.829459    -4.994462
H    -8.864467     1.229128    -4.918198
H     6.927978    -1.077208    -8.396072
O     6.345799    -1.797810    -8.660445
H     6.118010    -2.248673    -7.829032
H    -1.673518     6.248021    -7.005533
O    -2.071160     5.422330    -6.732886
H    -1.822951     5.290611    -5.769364
H    -0.178529     3.328971     8.892320
O     0.166158     2.492936     9.297483
H    -0.629521     2.182287     9.799593
H     6.757641    -2.780636    -2.698586
O     6.227171    -3.525138    -2.358065
H     6.695480    -4.335758    -2.605710
H    -4.076368    -3.068053    -4.937249
O    -4.230285    -2.954281    -5.901926
H    -4.777719    -2.161286    -5.957317
H     1.973023     1.962177     8.299098
O     2.764016     2.227944     7.812887
H     3.217821     1.378938     7.616305
H    -6.907099    -5.199948    -1.391591
O    -7.822679    -5.469084    -1.637314
H    -7.956330    -5.065576    -2.519846
H    -3.826130     5.250682     5.712162
O    -3.790674     6.018090     5.120585
H    -2.856862     6.313595     5.218081
H    -7.883118     0.090508    -1.956288
O    -7.392914     0.814345    -2.368881
H    -7.621399     0.804681    -3.322146
H     5.839628     0.126202     0.421783
O     5.617397     0.846619     1.043965
H     6.128269     0.650876     1.856217
H    -6.209824     3.302984     7.412919
O    -6.079943     2.780983     8.238898
H    -6.683427     2.022303     8.150386
H     2.278034    -8.075566    -0.841825
O     2.955189    -8.062155    -1.537874
H     2.730322    -8.775497    -2.151900
H    -2.743787    -3.955707    -6.191700
O    -1.990224    -4.522326    -5.960551
H    -1.713873    -4.231809    -5.063106
H    -5.640717     3.756291     5.323807
O    -6.289159     4.150777     5.942588
H    -6.126803     5.095066     5.930249
H    -1.018275    -7.112511    -3.160859
O    -0.545554    -6.443442    -2.631919
H     0.361799    -6.373794    -3.013092
H     4.449227     2.007563     5.139905
O     3.506915     2.247265     5.022804
H     3.122412     2.261238     5.903630
H     4.117843     4.643199     6.311663
O     4.195419     5.377683     5.698847
H     3.626845     5.140206     4.927289
H     2.768692     3.611508     3.934482
O     2.593014     4.552044     3.770965
H     2.471502     4.652534     2.804803
H     9.395531     0.208093    -1.060976
O     8.589689     0.370447    -0.566918
H     8.413747    -0.449227    -0.075250
H    -2.054223     5.215040     10.782426
O    -2.839320     4.617668     10.939402
H    -3.149850     4.846760     11.820116
H     7.974402    -3.013974     0.334036
O     8.395446    -2.167571     0.590288
H     8.329986    -2.163973     1.552589
H     5.375060     3.658164     3.537513
O     6.029597     3.920346     4.206972
H     5.619416     4.642218     4.705039
H    -4.190154     5.014767     9.804810
O    -4.825213     5.163342     9.082621
H    -5.439384     4.416875     9.085014
H    -7.009886    -3.473913    -3.478941
O    -7.630520    -4.085258    -3.927789
H    -7.109713    -4.526666    -4.630579
H     0.122335     5.699043     10.747533
O    -0.706205     6.216394     10.707110
H    -0.637950     6.712262     9.875645
H     2.591464     1.497807    -4.093827
O     3.469965     1.850005    -3.854610
H     3.790112     1.334160    -3.084702
H    -6.971758    -0.225895     7.229399
O    -7.478978     0.553056     7.510610
H    -8.102684     0.737726     6.807312
H    -2.743387    -9.873430    -0.830239
O    -2.679859    -8.931581    -0.988761
H    -3.585796    -8.565200    -0.747978
H    -10.066241     3.082828    -4.884123
O    -10.183344     2.165085    -4.604292
H    -10.399141     2.248271    -3.654482
H    -2.066577    -3.030538     4.620713
O    -2.941542    -3.470224     4.690740
H    -2.936145    -4.087063     3.933492
H    -0.178262    -7.986856     2.487395
O     0.648188    -7.776606     2.935290
H     1.366322    -8.072525     2.348264
H     6.707101    -2.386559     6.400726
O     7.156364    -3.095492     5.935872
H     6.526727    -3.830571     5.896507
H    -5.270624    -2.010601     6.952318
O    -5.946180    -1.511398     6.468704
H    -5.930995    -1.887768     5.559203
H     0.838632     3.038732    -7.101170
O     1.756115     2.707537    -7.157539
H     1.742041     1.960831    -7.784340
H    -3.946417     8.751946     6.691945
O    -3.948326     8.749438     5.734496
H    -4.073672     7.821852     5.467489
H    -2.055181     10.316564    -2.715839
O    -2.956860     10.498196    -3.017508
H    -2.885366     11.133279    -3.729419
H     9.412034    -4.070387     4.049645
O     9.131437    -4.748766     4.671548
H     8.702969    -4.276744     5.396467
H    -0.734759    -5.992360    -5.836759
O    -0.031463    -6.559270    -5.503546
H     0.804176    -6.098010    -5.721204
H     1.829788     8.272920     0.683671
O     1.526516     8.595249    -0.193615
H     2.341081     8.634114    -0.724182
H     3.500716     2.934427    -6.649359
O     4.328308     2.643604    -6.240466
H     4.083130     2.369087    -5.331858
H     3.737089     7.123811    -1.212482
O     3.943227     8.059639    -1.424829
H     4.312110     8.004574    -2.318349
H     4.396566    -0.001820    -7.901966
O     4.773694     0.143521    -7.032401
H     4.592325     1.075310    -6.788045
H     6.033091     1.930250    -0.463760
O     6.598472     2.124083    -1.225215
H     7.422936     1.643891    -1.032050
H     6.683905    -8.433427    -1.605973
O     7.319712    -8.221982    -2.342364
H     7.686575    -9.055878    -2.631077
H    -5.301481    -5.782351    -5.402986
O    -5.918494    -5.109760    -5.716772
H    -5.367169    -4.341565    -5.953111
H     0.644473     7.163290     7.637437
O    -0.273498     7.179140     7.970835
H    -0.787832     7.201310     7.124473
H    -8.896891    -2.827782    -4.094138
O    -9.416840    -2.019199    -3.925515
H    -9.130989    -1.353854    -4.555253
H    -2.409857    -5.986705    -2.139510
O    -3.287922    -5.699649    -2.407556
H    -3.475513    -6.073366    -3.293683
H    -2.986835    -5.894534    -5.405198
O    -3.586678    -6.504508    -4.933161
H    -3.105098    -7.325234    -4.767783
H    -1.388077     3.733584    -6.968484
O    -0.848109     2.977278    -6.698440
H    -1.085418     2.192867    -7.249215
H    -0.202856     0.425069    -8.205395
O    -1.098708     0.660385    -7.921467
H    -1.274041     0.135875    -7.124195
H    -10.420347     4.058288    -2.718535
O    -10.487717     3.278897    -2.151378
H    -9.658440     3.251999    -1.642451
H     4.582823     4.076205     1.734642
O     4.376479     3.154983     2.014573
H     5.090835     2.579302     1.728998
H     6.487577     1.399299    -4.208710
O     6.184470     0.774630    -3.515159
H     6.215678     1.269419    -2.671038
H     9.634295    -2.229502    -0.922536
O     9.910825    -2.013887    -1.822028
H     9.110444    -1.674820    -2.265132
H     9.970238    -3.322104    -3.092933
O     9.702612    -3.973446    -3.768276
H     9.309219    -3.465070    -4.488169
H    -7.699125    -8.571696    -1.664319
O    -6.961182    -7.977259    -1.791647
H    -7.338777    -7.064230    -1.780991
H     4.163749     6.082812    -3.804912
O     4.824970     6.783774    -3.718805
H     5.661212     6.329558    -3.582510
H     0.096993    -8.166272    -5.213845
O     0.120614    -9.149269    -5.082769
H     0.270760    -9.512417    -5.955652
H    -2.333492    -8.671283    -2.714441
O    -2.099567    -8.406333    -3.623613
H    -1.453433    -9.024746    -3.983360
H     2.182370    -10.814701    -3.496785
O     2.136315    -9.860184    -3.471260
H     1.351025    -9.588721    -3.997322
H     6.838127     3.332325    -4.561837
O     6.895868     2.654493    -5.263052
H     6.102544     2.788510    -5.803771
H    -3.564578    -3.730366     7.727451
O    -3.672931    -2.940365     7.199403
H    -3.425536    -3.179856     6.280048
H    -0.637588    -3.356075    -6.717791
O    -0.006995    -2.624934    -6.724296
H    -0.488532    -1.849565    -6.382171
H     0.630412     0.445176     8.782211
O     0.643779    -0.242270     8.114935
H    -0.272445    -0.553691     8.032145
H    -5.830896     7.373808    -4.232935
O    -6.333893     6.755476    -4.794493
H    -6.621212     6.024270    -4.203877
H    -4.275160     9.107548    -3.243065
O    -4.810673     8.311148    -3.137728
H    -4.402493     7.831117    -2.399060
H    -9.709013     5.804206    -4.628305
O    -10.242423     4.999383    -4.465614
H    -11.123110     5.200879    -4.783821
H     2.833233     6.621344     6.112042
O     1.868454     6.665029     6.226697
H     1.597983     5.725800     6.100604
H     4.807475     8.545557     0.102626
O     5.124882     8.544932     1.023555
H     5.532356     7.680727     1.152998
H     4.142430    -7.423837    -4.340714
O     3.383996    -7.707748    -4.882952
H     3.103787    -8.549181    -4.507825
H     0.380566     8.655533     4.251962
O     1.057618     8.010319     4.023148
H     1.284925     7.519349     4.838685
H     5.237804     4.192444    -3.143920
O     6.199251     4.162111    -3.091259
H     6.408193     3.579912    -2.344077
H    -2.571433    -1.553380     7.582665
O    -2.062230    -0.760099     7.806476
H    -2.692449    -0.135222     8.176278
H    -9.024691     7.943646    -4.126700
O    -8.961720     7.359467    -4.883817
H    -8.004700     7.195669    -5.019525
H     3.529621    -8.983370     1.090875
O     2.853475    -8.351476     1.340878
H     3.328638    -7.546664     1.621073
H     3.588001     8.168848     1.848019
O     2.798354     7.604186     1.960482
H     2.350832     7.840716     2.785807
N     1.600272     4.536326     10.709737
H     2.409710     4.742105     10.232276
H     1.294963     3.688121     10.340069
