45

H     3.374915     2.590614     0.345984
O     3.262078     2.645201    -0.617257
H     3.549850     1.770791    -0.957354
H     2.195444     4.704845     0.422214
O     1.718519     4.673392     1.261104
H     1.324529     3.762246     1.317856
H     2.215105     5.870944    -1.265667
O     3.144463     5.556192    -1.119320
H     3.339334     5.032584    -1.925783
H     4.211637     5.606937     0.309663
O     4.604337     5.676309     1.201291
H     3.985460     6.294080     1.640927
H     6.499003     1.062547     4.873586
O     6.091558     1.612890     5.560486
H     6.247252     2.524063     5.227433
H     7.559683    -0.640354     3.167494
O     6.867912     0.004762     3.361169
H     6.157540    -0.581400     3.742751
H     5.810727     0.172393     0.375797
O     5.570464     0.776262     1.103073
H     6.046448     0.446297     1.894757
H     2.712010     3.575004     4.042073
O     2.552716     4.515059     3.848324
H     2.528793     4.603706     2.876676
H     9.411420     0.018357    -1.104084
O     8.600808     0.230451    -0.627474
H     8.426112    -0.571425    -0.101332
H     5.320449     3.619657     3.592512
O     6.034862     3.966731     4.166424
H     5.589865     4.663868     4.686571
H     6.586107     2.649466    -0.454526
O     6.829398     2.270742    -1.310981
H     7.516465     1.613581    -1.088754
H     4.423983     3.962689     1.754982
O     4.287229     3.048283     2.076890
H     4.978882     2.517966     1.649395
H     4.663922     8.628870     0.019753
O     4.989877     8.793497     0.932334
H     5.615357     8.073106     1.070243
H     5.313306     4.136252    -3.284754
O     6.270221     4.253887    -3.229241
H     6.555611     3.655283    -2.510413
N     6.972751     4.060662     1.041189
H     7.173552     3.888824     1.968548
H     6.361189     4.811756     1.092029
