33

H    -3.719025     0.064222     4.876822
O    -4.285974     0.546154     5.534242
H    -5.062322    -0.025610     5.682700
H    -4.031503     1.250596     7.032084
O    -3.989427     1.736953     7.892846
H    -4.876851     2.183373     7.985308
H    -3.867819     4.821475     7.810471
O    -3.295450     4.383394     7.139906
H    -3.466548     3.432074     7.250331
H    -0.538287     2.049192     7.688691
O    -1.205456     1.924989     6.989318
H    -1.946102     1.494508     7.430204
H    -2.445547     3.028630     10.480071
O    -2.273768     2.098651     10.241897
H    -2.854687     1.944406     9.479796
H    -6.419676     3.405223     7.292886
O    -6.308240     2.923550     8.152080
H    -6.920487     2.168079     8.102678
H    -7.185851    -0.205724     7.323305
O    -7.559352     0.370283     8.021110
H    -8.511054     0.255577     7.953234
H    -5.408310    -1.699791     6.862280
O    -6.114738    -1.305784     6.316770
H    -6.038573    -1.786792     5.461112
H    -3.761323    -3.371492     7.668343
O    -3.616302    -2.647573     7.053389
H    -3.390453    -3.072318     6.198964
H    -2.512585    -1.321617     7.687252
O    -2.047393    -0.611063     8.163899
H    -2.347444    -0.706539     9.071473
N    -4.866115    -0.666311     9.220700
H    -4.569277     0.156362     8.788269
H    -5.806880    -0.515822     9.360860
