27
Coordinates from ORCA-job grain_mol_opt.QMRegion
  H   -5.66844195423687      0.84466738821157     -1.53023117049836
  O   -4.76706816793752      1.19971746647624     -1.48234154993435
  H   -4.85574796873471      2.07633172738891     -1.05570336859468
  H   -4.99003857442081      4.20062919727028      0.10817809416613
  O   -5.42688513981993      3.33853398793033     -0.07109798092886
  H   -6.36652240668412      3.46718464244546     -0.28554057999555
  H   -7.66411805098321      3.78023967384165     -2.00967117117844
  O   -7.91717599752977      3.14431988183443     -1.30306587164463
  H   -7.75214184328390      2.26272638161212     -1.73178944203044
  H   -6.24817882145171     -0.14061206849929      1.13659722873780
  O   -6.62601983808742     -0.13725514303342      0.23764367338419
  H   -7.57854297670493     -0.02377482912730      0.35942151835858
  H   -9.05310887132758     -1.88804568687280     -2.27693706361466
  O   -8.52788050322071     -1.60590512925573     -1.50085078823947
  H   -8.58886119405800     -2.31642125561800     -0.81777835966280
  H   -7.86110546188982      0.01071855951945     -2.01357998623602
  O   -7.38002914461322      0.74714226273593     -2.43414402681089
  H   -7.63705592759961      0.73425006283500     -3.38322829769394
  H   -10.01917875857472      3.04879344077294     -4.94898805191537
  O   -10.24384477225445      2.13398842034412     -4.72152094356697
  H   -10.42551738800455      2.22336676341467     -3.76573959380535
  H   -10.52449630008821      4.08422614090802     -2.84303087995235
  O   -10.60468708748736      3.35823787506397     -2.20300958478699
  H   -9.72223465532769      3.33377292387096     -1.78554902669713
  O   -9.22666201102827      0.92186209221238      0.50899247300068
  H   -9.84412557524499      0.49292323499085     -0.09137039399502
  H   -9.10485057500279      1.80877902731630      0.14612415636475
