18

H     1.340573     1.613133    -5.800481
O     1.162581     1.034943    -5.021055
H     1.576199     0.188097    -5.266754
H     2.032758    -0.182865    -7.542810
O     1.917964     0.246625    -8.423729
H     2.522251    -0.259146    -8.988252
H     0.896063     3.124668    -7.125243
O     1.781274     2.713537    -7.057514
H     1.853578     2.109926    -7.809194
H    -1.417790     3.807049    -6.947557
O    -0.853707     3.057058    -6.691856
H    -1.101991     2.266626    -7.218680
H    -0.306150     0.247734    -8.083321
O    -1.168737     0.597883    -7.822870
H    -1.357385     0.135316    -6.979994
N     0.207344     2.364840    -9.982529
H    -0.668768     2.004823    -9.807081
H     0.793203     1.616562    -9.818484
