603

H     0.201267     3.036490    -0.677683
O     0.724949     2.368127    -1.170093
H     1.663572     2.497963    -0.897327
H    -0.070463    -1.299352     3.154837
O     0.321362    -0.598824     2.610675
H    -0.158125     0.213965     2.842773
H    -2.396898     2.414082    -0.534027
O    -2.185323     1.943817     0.289919
H    -2.202003     0.995828     0.065249
H    -4.659430     0.550348     2.185095
O    -4.975462    -0.383347     2.199145
H    -4.470873    -0.860938     1.532526
H     0.068267    -0.302481     0.955277
O    -0.129257    -0.066695     0.028206
H     0.208203     0.830496    -0.093026
H    -0.147189    -3.569268     3.783649
O    -0.426381    -2.738921     4.203502
H     0.219570    -2.567824     4.905304
H    -4.884807     2.533184     1.332011
O    -4.244760     2.124533     1.946834
H    -3.402262     2.107344     1.433723
H    -3.248485     3.899925    -2.210631
O    -2.510133     3.303896    -1.979450
H    -2.152115     3.015491    -2.839140
H    -0.118288    -3.799120     0.509206
O     0.221081    -2.981026     0.926418
H    -0.566713    -2.495072     1.237897
H    -2.372768    -1.533323     2.473958
O    -2.183104    -1.999650     1.633399
H    -2.442406    -1.413544     0.903386
H     2.077329    -1.437091    -1.117183
O     2.309255    -1.688643    -0.199400
H     1.520563    -2.117145     0.184537
H    -1.389747     1.830141     1.913690
O    -1.478890     1.432788     2.790150
H    -1.466842     2.145569     3.454723
H     0.213770    -2.698857    -1.565242
O    -0.542305    -2.087781    -1.620068
H    -0.363339    -1.360891    -0.986744
H    -3.431392    -2.923010    -0.385887
O    -2.713453    -3.414778    -0.805873
H    -2.004049    -2.783597    -1.025030
H     2.775897     0.138221     2.936071
O     2.876123    -0.042313     3.897991
H     2.965270     0.851057     4.301322
H    -3.531113     6.383012    -0.543929
O    -3.292987     7.045070    -1.244701
H    -3.151872     7.890735    -0.775245
H     3.905447     0.591521     1.187561
O     2.954641     0.411034     1.303729
H     2.717154    -0.342300     0.725365
H    -5.779013     0.842883    -1.601603
O    -4.868802     1.170912    -1.475433
H    -4.980472     1.999703    -0.964595
H    -1.215277     5.403361     2.206941
O    -1.837963     4.653836     2.093002
H    -1.914699     4.237890     2.956860
H     3.491554     2.768641     0.425667
O     3.247430     2.728202    -0.513915
H     3.579357     1.885233    -0.864763
H     1.497735    -4.691925    -2.244906
O     1.561871    -3.914237    -1.672289
H     2.356116    -3.452828    -2.023957
H    -0.919256    -0.082067    -2.545516
O    -0.285429     0.570614    -2.869869
H    -0.025672     1.153595    -2.133336
H     1.706148    -4.679166    -0.173696
O     1.813688    -5.315589     0.569413
H     1.350893    -6.127344     0.273993
H    -1.221544    -3.263146    -2.874862
O    -1.047453    -3.946887    -3.535064
H    -0.920402    -4.793381    -3.065475
H    -2.779825     3.314473     4.705823
O    -1.798486     3.311594     4.672161
H    -1.506037     2.910706     5.508973
H     0.959828     5.041372     4.077941
O     0.013297     5.271008     4.126700
H    -0.457701     4.468184     4.387270
H    -1.723546    -4.646833    -0.365361
O    -0.957924    -5.186770    -0.080097
H    -1.304932    -5.873619     0.498508
H    -3.919668     5.833372    -2.598168
O    -4.269619     4.998747    -2.927486
H    -4.114966     4.963679    -3.895720
H    -2.424209    -3.684552     1.941625
O    -2.441820    -4.588470     2.318136
H    -1.501846    -4.825763     2.458612
H    -4.690735    -2.979636    -2.893281
O    -3.838233    -3.212090    -3.299517
H    -3.506599    -4.005167    -2.833801
H     0.342321     1.385339     4.616115
O     0.849611     2.145024     4.283047
H     0.895458     2.804841     4.989207
H    -4.648370    -5.169260    -1.564050
O    -5.350342    -4.815964    -0.990391
H    -5.136751    -5.169630    -0.106059
H     2.333717    -6.477224    -4.033196
O     1.996651    -6.148232    -3.179766
H     2.431721    -6.721326    -2.516316
H     0.471613    -3.375939    -4.000765
O     1.273946    -3.008524    -4.424187
H     0.954052    -2.637881    -5.272941
H     1.968217    -1.744239     2.985212
O     2.124915    -2.674979     2.768504
H     1.439135    -2.890107     2.101840
H    -3.011386    -1.807849    -3.205337
O    -2.589912    -0.920978    -3.140836
H    -3.245958    -0.276056    -3.460868
H    -3.191635     4.979252     1.079948
O    -3.973485     5.352107     0.625246
H    -4.389034     5.909989     1.331219
H     0.877315     2.260494     2.592883
O     0.979004     2.256735     1.621698
H     1.704797     1.632248     1.457267
H     0.188951     5.666325    -0.755999
O     0.711129     6.328923    -1.263467
H     0.864660     7.125294    -0.704265
H     0.316497     7.035161     2.593710
O    -0.026113     6.659553     1.765166
H     0.641139     5.989313     1.511586
H    -2.476549     0.220957     3.344086
O    -2.697473    -0.592961     3.849565
H    -1.936802    -0.631517     4.471097
H    -0.890148     0.562419     6.027933
O    -0.615503     0.043340     5.253481
H     0.098069    -0.559918     5.540443
H     0.717141    -4.987211     1.985891
O     0.175357    -5.096502     2.790734
H     0.320719    -6.016880     3.063334
H    -2.109459    -8.084182     0.456424
O    -1.787188    -7.595481     1.241229
H    -2.573591    -7.284559     1.697311
H    -0.381437     6.869136    -2.324576
O    -1.127820     7.287666    -2.824613
H    -1.918147     7.160761    -2.261607
H    -1.113745     4.314787     0.573606
O    -0.740280     4.375732    -0.322283
H    -1.447033     4.133233    -0.954425
H    -4.408265     2.751647     3.509041
O    -4.406348     2.922459     4.473554
H    -4.489185     2.039570     4.883139
H     2.030868    -3.572858     4.248599
O     1.967796    -4.044555     5.102164
H     2.474286    -3.506961     5.732412
H     4.693462    -3.185403     0.842487
O     4.532632    -3.110235    -0.123938
H     3.673247    -2.633916    -0.207419
H    -2.719851    -0.745668    -1.348116
O    -3.047010    -0.475271    -0.473682
H    -3.848163     0.049545    -0.680659
H    -1.614748    -0.759393    -4.627892
O    -1.108092    -0.543632    -5.432012
H    -0.398684     0.053632    -5.147398
H     1.798284    -1.710263    -3.373739
O     1.890093    -0.963000    -2.751034
H     1.112091    -0.386787    -2.882270
H     3.668921    -3.112638     2.554206
O     4.628164    -3.340683     2.481236
H     4.683704    -4.300784     2.608240
H     3.434653    -6.111610     3.128769
O     3.789909    -5.910744     2.228421
H     3.051859    -5.566447     1.685417
H    -3.343479     1.611720    -4.175202
O    -4.187908     1.140440    -3.983975
H    -4.405383     1.286540    -3.027382
H    -5.082911     4.149502     0.068020
O    -5.520881     3.283027    -0.034557
H    -6.451441     3.401407    -0.316259
H     6.736966    -1.171878    -1.360973
O     5.965066    -1.022702    -0.808423
H     5.547017    -1.890883    -0.610857
H     4.598254    -3.162251    -2.467294
O     3.729954    -2.991885    -2.882818
H     3.733487    -3.611016    -3.638705
H     4.441343    -2.281753     5.624298
O     4.099335    -2.746556     6.418231
H     4.434357    -3.651617     6.336914
H    -0.756773     6.346296     5.074016
O    -1.353161     6.921542     5.612583
H    -1.367829     7.798793     5.170455
H     4.700787    -0.128661    -1.465139
O     3.932428     0.412982    -1.726921
H     3.240751    -0.188323    -2.057434
H    -0.744664     4.526305    -4.037307
O    -1.527726     5.068925    -4.244816
H    -1.376367     5.935900    -3.822971
H     0.658418     3.207684    -2.658055
O     0.665801     3.584069    -3.566616
H     0.713111     2.820338    -4.151806
H    -5.376748    -5.190847     1.801637
O    -4.679737    -5.785344     1.446635
H    -3.839433    -5.368657     1.716714
H     7.883788    -1.682445    -4.032554
O     7.625668    -1.368816    -3.133105
H     7.138555    -0.525153    -3.290288
H     3.705386    -5.068146    -5.285516
O     4.467713    -4.693931    -4.804881
H     4.852957    -5.404415    -4.258948
H    -3.780583     0.023910     4.938462
O    -4.381076     0.488010     5.571247
H    -5.040896    -0.170265     5.863643
H     3.470913    -5.935170    -0.514254
O     4.343434    -5.687686    -0.832379
H     4.419113    -4.725190    -0.689708
H     5.002072    -0.330148    -4.159561
O     4.466671    -1.041997    -4.548559
H     4.141565    -1.625229    -3.830232
H    -1.172587     1.573892    -3.935030
O    -1.823470     2.194198    -4.320388
H    -1.466797     2.525220    -5.167380
H     4.891061    -6.315332    -2.310018
O     5.223681    -6.640703    -3.175569
H     6.042138    -7.120894    -2.988932
H     8.745205    -5.082941    -2.915496
O     8.054384    -5.500854    -2.356616
H     8.089737    -6.458198    -2.458147
H     2.330241     4.725001     0.449412
O     1.759181     4.709152     1.226394
H     1.400845     3.789128     1.305932
H    -4.409949    -2.629390     4.237153
O    -5.304243    -2.290603     4.034963
H    -5.168225    -1.509850     3.458727
H    -5.841196    -3.193524     1.324006
O    -6.303284    -3.750448     1.992929
H    -6.114932    -3.314271     2.843114
H     1.688658     3.476908     6.863661
O     1.066858     3.993777     6.329399
H     0.282751     4.146810     6.899921
H     5.005978    -2.158379     3.618389
O     5.026282    -1.439244     4.281711
H     4.214031    -0.883854     4.125054
H     2.398472    -5.566721     4.843961
O     2.779133    -6.450373     4.584513
H     2.034530    -7.032598     4.410897
H     2.259899    -4.514266    -6.785577
O     2.091356    -5.002085    -5.969477
H     1.826496    -4.310570    -5.314500
H     6.444782    -4.094133    -0.500664
O     7.198272    -4.496388    -0.037143
H     7.705757    -4.919259    -0.757755
H    -1.722881     4.499222     7.701322
O    -0.823342     4.598749     8.084987
H    -0.644199     5.558260     8.109202
H    -5.122472     5.691947    -5.595899
O    -4.514242     4.928929    -5.615741
H    -3.757512     5.143421    -6.182395
H     3.282027    -2.526323    -8.433962
O     3.195014    -3.058225    -7.632055
H     4.071872    -3.033062    -7.203711
H    -0.657272     8.831250    -2.276354
O    -0.532941     9.657735    -1.754638
H     0.232173     9.485960    -1.182394
H     2.071178    -0.901824     5.214341
O     1.499124    -1.427946     5.802169
H     1.592549    -1.081877     6.699134
H     5.207007    -2.019769    -5.691304
O     5.553422    -2.786283    -6.212754
H     5.280494    -3.575981    -5.694397
H     5.702839    -5.202395     4.689995
O     5.180870    -5.116902     5.516833
H     4.460030    -5.749804     5.432366
H    -3.970576     1.153539     7.010514
O    -3.778292     1.630211     7.853824
H    -4.654625     2.015374     8.114753
H    -1.854491     9.619220    -0.746693
O    -2.716169     9.491579    -0.275569
H    -3.326718     10.120407    -0.663874
H    -5.950764     4.689137    -2.937443
O    -6.859493     4.569056    -3.281087
H    -6.768837     3.866223    -3.957675
H     0.101136    -7.060071    -1.135606
O     0.566010    -7.494922    -0.387676
H    -0.112820    -7.689953     0.261491
H    -7.639024     3.790242    -1.971171
O    -7.899547     3.203634    -1.230504
H    -7.756098     2.294790    -1.569484
H     3.977695    -0.879760     6.988448
O     3.986429     0.084438     6.978021
H     4.798902     0.373424     6.546390
H     2.250172     5.802498    -1.185269
O     3.184964     5.506319    -1.069965
H     3.365199     4.968022    -1.863999
H     6.557031    -5.919645     0.676305
O     6.189206    -6.655741     1.210907
H     5.284526    -6.379139     1.437721
H    -3.866657     4.737872     7.781712
O    -3.299551     4.274757     7.123297
H    -3.493135     3.331415     7.234215
H     5.769971    -7.936594     0.144271
O     5.482259    -8.624596    -0.492337
H     4.652759    -8.299988    -0.886635
H    -0.554544     2.052439     7.695317
O    -1.187837     1.986933     6.960375
H    -2.056179     1.844862     7.357172
H    -6.380892    -0.119342     1.067649
O    -6.701070    -0.204053     0.154884
H    -7.619691    -0.475248     0.173171
H    -5.368346    -3.062533    -0.581220
O    -5.116319    -2.359622     0.043866
H    -5.687100    -1.587372    -0.144065
H     4.192555     5.531475     0.289172
O     4.625280     5.688132     1.150291
H     3.961336     6.226106     1.631516
H    -9.042026    -1.747113    -2.245748
O    -8.493933    -1.544686    -1.460097
H    -8.620436    -2.280976    -0.821853
H    -5.527524     3.468913    -5.525474
O    -6.044105     2.758141    -5.109970
H    -5.376945     2.173456    -4.696127
H     3.180338    -0.885355    -5.653455
O     2.324142    -1.006521    -6.118486
H     2.410267    -1.855755    -6.591434
H     8.114663    -1.343728    -6.028689
O     8.123593    -2.207344    -5.571444
H     7.267692    -2.608149    -5.821522
H     7.619023     0.995914    -6.311561
O     7.430436     0.146972    -6.723759
H     6.449167     0.096480    -6.759631
H    -7.856104    -3.691717     0.938706
O    -8.534824    -3.585791     0.254497
H    -8.436359    -4.345664    -0.346593
H    -2.413668     8.742767     1.289830
O    -2.261689     8.154316     2.042647
H    -1.492188     7.601738     1.817619
H    -4.446006     6.441211     3.496229
O    -4.616934     6.865856     2.639235
H    -3.854377     7.452734     2.498693
H     3.398600     3.451273    -3.578788
O     3.243513     4.420324    -3.484577
H     2.278802     4.483900    -3.594616
H    -6.114613    -1.606674    -3.435701
O    -6.196651    -2.185308    -2.651164
H    -6.980705    -1.878325    -2.142487
H     6.470857     1.063310     4.737786
O     6.077681     1.605152     5.439036
H     6.267911     2.522129     5.145732
H     1.359224     1.723852    -5.822110
O     1.165611     1.128615    -5.067025
H     1.529475     0.265535    -5.336403
H    -2.485107     2.975864     10.485644
O    -2.271925     2.068405     10.212608
H    -2.870273     1.867432     9.481118
H     7.630496    -0.483608     3.083053
O     6.879787     0.091055     3.252404
H     6.188534    -0.510466     3.631942
H    -5.652421    -8.052987    -0.689277
O    -4.917160    -8.120589    -0.043197
H    -4.921336    -7.302898     0.478129
H    -5.178119    -0.120153    -4.710245
O    -5.794743    -0.832613    -4.949109
H    -6.633316    -0.391749    -5.147241
H     1.887966    -0.197950    -7.513143
O     1.685493     0.272953    -8.357347
H     2.262223    -0.132369    -9.010359
H     4.870247    -1.392552    -9.302492
O     3.944727    -1.164707    -9.584441
H     3.924285    -1.283153    -10.533401
H     7.568821    -2.556955     4.201763
O     7.714801    -2.592951     3.242160
H     7.222740    -3.384835     2.970943
H     6.727494    -5.882475     2.689261
O     6.789134    -5.206648     3.389847
H     7.665298    -5.290926     3.807273
H    -1.824953     8.955417     3.494708
O    -1.579450     9.259826     4.393505
H    -2.429288     9.392850     4.846691
H    -7.392202     1.564464    -5.246064
O    -7.966284     0.820102    -4.999972
H    -8.868324     1.219078    -4.924088
H     6.924356    -1.079935    -8.404010
O     6.342816    -1.801702    -8.666672
H     6.115835    -2.250970    -7.834170
H    -1.682956     6.240365    -7.024187
O    -2.079893     5.415013    -6.749482
H    -1.831003     5.285522    -5.785901
H     0.003615     3.324950     9.023137
O     0.201907     2.405693     9.279165
H    -0.595926     2.141167     9.786263
H     6.758366    -2.771678    -2.702762
O     6.228608    -3.516055    -2.360755
H     6.697529    -4.326711    -2.607029
H    -4.076427    -3.073847    -4.936302
O    -4.231006    -2.962156    -5.901141
H    -4.779069    -2.169696    -5.957829
H     1.983059     2.197267     8.466203
O     2.646818     2.309965     7.776072
H     3.069342     1.439931     7.660479
H    -6.903586    -5.201388    -1.385205
O    -7.819052    -5.471826    -1.630108
H    -7.953368    -5.070149    -2.513362
H    -3.827289     5.264352     5.697789
O    -3.795740     6.031794     5.105704
H    -2.862255     6.327924     5.199259
H    -7.884728     0.087152    -1.960135
O    -7.395528     0.810703    -2.374436
H    -7.624279     0.798786    -3.327585
H     5.838367     0.142532     0.412781
O     5.615812     0.864165     1.033609
H     6.127248     0.669324     1.845968
H    -6.212861     3.319525     7.399557
O    -6.084097     2.801937     8.228476
H    -6.684099     2.040281     8.141149
H     2.284309    -8.067154    -0.833816
O     2.961132    -8.054699    -1.530222
H     2.736561    -8.769468    -2.142653
H    -2.743640    -3.962766    -6.189468
O    -1.989504    -4.528283    -5.957530
H    -1.712969    -4.235740    -5.060770
H    -5.642959     3.768672     5.311723
O    -6.291672     4.165141     5.929323
H    -6.129399     5.109387     5.914505
H    -1.013822    -7.111920    -3.153264
O    -0.541577    -6.441339    -2.625883
H     0.365635    -6.371629    -3.007398
H     4.447601     2.030721     5.128815
O     3.506646     2.272863     5.008304
H     3.121791     2.287149     5.890027
H     4.145244     4.725978     6.270847
O     4.213323     5.449120     5.643074
H     3.638152     5.193341     4.880993
H     2.769955     3.637356     3.933880
O     2.591441     4.576157     3.760706
H     2.480265     4.669782     2.792958
H     9.393971     0.223432    -1.072262
O     8.587862     0.384817    -0.578396
H     8.413625    -0.434143    -0.085010
H    -2.098645     5.335352     10.650641
O    -2.819803     4.706238     10.882946
H    -3.038508     4.884752     11.797793
H     7.976480    -2.998213     0.329600
O     8.396954    -2.150989     0.583941
H     8.331836    -2.145378     1.546267
H     5.378030     3.674129     3.518418
O     6.036055     3.947106     4.179879
H     5.627250     4.675346     4.669616
H    -4.206979     5.034981     9.786095
O    -4.840273     5.184801     9.064044
H    -5.451860     4.435952     9.062627
H    -7.008944    -3.479482    -3.475979
O    -7.629233    -4.092209    -3.923456
H    -7.108231    -4.534577    -4.625510
H     0.029479     6.146351     10.768461
O    -0.835853     6.476087     10.521646
H    -0.721857     6.905959     9.654787
H     2.587418     1.499633    -4.105009
O     3.465281     1.853816    -3.866411
H     3.786888     1.339282    -3.096215
H    -6.968303    -0.209886     7.226407
O    -7.477117     0.568640     7.506261
H    -8.100809     0.750990     6.802334
H    -2.735404    -9.869783    -0.816293
O    -2.672914    -8.928240    -0.977002
H    -3.578972    -8.562137    -0.736319
H    -10.071681     3.071794    -4.893218
O    -10.188036     2.154533    -4.611527
H    -10.403357     2.239386    -3.661760
H    -2.062427    -3.015056     4.621078
O    -2.936983    -3.455658     4.691691
H    -2.930921    -4.074177     3.935959
H    -0.170336    -7.974207     2.496302
O     0.656124    -7.762635     2.943522
H     1.374321    -8.058694     2.356672
H     6.711075    -2.359680     6.395442
O     7.161181    -3.069024     5.931916
H     6.532108    -3.804676     5.894193
H    -5.266615    -1.993613     6.951492
O    -5.943456    -1.496397     6.467429
H    -5.927567    -1.874311     5.558611
H     0.831636     3.032956    -7.114811
O     1.749303     2.702329    -7.170685
H     1.735840     1.954471    -7.796119
H    -3.957553     8.766276     6.670284
O    -3.959031     8.763197     5.712928
H    -4.082132     7.835042     5.446374
H    -2.063854     10.317518    -2.742705
O    -2.965908     10.497406    -3.043535
H    -2.896240     11.131577    -3.756498
H     9.416671    -4.045353     4.046667
O     9.137574    -4.722849     4.670214
H     8.708330    -4.249900     5.394102
H    -0.732605    -5.996820    -5.831355
O    -0.028657    -6.562559    -5.497544
H     0.806480    -6.100843    -5.716241
H     1.885139     8.367762     0.658687
O     1.524476     8.600346    -0.223224
H     2.302608     8.625993    -0.804198
H     3.494061     2.931985    -6.664003
O     4.321945     2.642294    -6.255025
H     4.077907     2.369895    -5.345545
H     3.731264     7.106986    -1.300960
O     3.965361     8.022336    -1.564578
H     4.284657     7.877117    -2.476220
H     4.392216    -0.005872    -7.911021
O     4.769403     0.141230    -7.041803
H     4.587710     1.073441    -6.799171
H     6.030692     1.941230    -0.476948
O     6.594690     2.135205    -1.239255
H     7.420598     1.657620    -1.046125
H     6.689918    -8.422802    -1.598895
O     7.325184    -8.212457    -2.336101
H     7.692041    -9.046757    -2.623632
H    -5.299258    -5.790112    -5.396115
O    -5.917051    -5.118792    -5.711116
H    -5.366521    -4.350506    -5.949052
H     0.681126     7.188390     7.598741
O    -0.220579     7.215644     7.956943
H    -0.776204     7.228987     7.139262
H    -8.896680    -2.836284    -4.091752
O    -9.417471    -2.027897    -3.924698
H    -9.132295    -1.363499    -4.555739
H    -2.406070    -5.985325    -2.133334
O    -3.284516    -5.699701    -2.401704
H    -3.472037    -6.075368    -3.286986
H    -2.984520    -5.900206    -5.399035
O    -3.583680    -6.509879    -4.925733
H    -3.101168    -7.329734    -4.758719
H    -1.395499     3.726234    -6.982281
O    -0.854906     2.970892    -6.710881
H    -1.091574     2.185191    -7.260119
H    -0.207745     0.416235    -8.213115
O    -1.103688     0.651350    -7.929255
H    -1.278116     0.128271    -7.130835
H    -10.425785     4.051215    -2.729592
O    -10.492386     3.273029    -2.160698
H    -9.662699     3.247627    -1.652311
H     4.575699     4.100632     1.718450
O     4.375708     3.181435     1.998015
H     5.088201     2.604769     1.708441
H     6.483584     1.404676    -4.221386
O     6.181107     0.781086    -3.526355
H     6.212794     1.277962    -2.683428
H     9.635134    -2.214603    -0.929290
O     9.910958    -2.001299    -1.829546
H     9.110308    -1.662939    -2.272713
H     9.971060    -3.311455    -3.097596
O     9.703841    -3.964395    -3.771616
H     9.309615    -3.457709    -4.492251
H    -7.692745    -8.574245    -1.650690
O    -6.955374    -7.979502    -1.779874
H    -7.333667    -7.066739    -1.770804
H     4.156455     6.077111    -3.835020
O     4.813492     6.783054    -3.762117
H     5.651616     6.340021    -3.601318
H     0.101325    -8.168735    -5.204579
O     0.125870    -9.151493    -5.071754
H     0.276055    -9.516035    -5.944046
H    -2.327446    -8.670944    -2.703091
O    -2.094331    -8.407759    -3.612997
H    -1.447612    -9.026186    -3.971656
H     2.189853    -10.811849    -3.483412
O     2.143038    -9.857326    -3.459817
H     1.357256    -9.587533    -3.985987
H     6.833042     3.336539    -4.578738
O     6.890166     2.656752    -5.278351
H     6.096970     2.790306    -5.819203
H    -3.556919    -3.710556     7.729767
O    -3.671544    -2.923212     7.199100
H    -3.420900    -3.163071     6.280824
H    -0.638261    -3.362342    -6.717672
O    -0.008393    -2.630603    -6.726067
H    -0.490412    -1.855008    -6.385162
H     0.646987     0.476945     8.755425
O     0.654924    -0.238137     8.115201
H    -0.267049    -0.528213     8.028503
H    -5.839886     7.368028    -4.252123
O    -6.342721     6.748251    -4.812184
H    -6.628987     6.017816    -4.220066
H    -4.284923     9.105014    -3.266739
O    -4.820001     8.308692    -3.159191
H    -4.410927     7.830238    -2.419981
H    -9.716711     5.794053    -4.643070
O    -10.249439     4.989169    -4.478495
H    -11.130331     5.189185    -4.797056
H     2.773891     6.531589     6.126815
O     1.814715     6.618500     6.242795
H     1.476268     5.701927     6.146777
H     5.480326     8.188517    -0.406689
O     6.090600     8.033419     0.339931
H     5.833547     7.138073     0.627168
H     4.146552    -7.420809    -4.334611
O     3.388309    -7.706589    -4.876168
H     3.108897    -8.547427    -4.499128
H     0.329194     8.636517     4.273443
O     0.974510     7.951276     4.054656
H     1.193448     7.479723     4.886480
H     5.231251     4.199045    -3.161407
O     6.192551     4.167424    -3.111603
H     6.403802     3.590881    -2.360903
H    -2.571274    -1.532110     7.579637
O    -2.061359    -0.738276     7.798551
H    -2.687464    -0.112108     8.172394
H    -9.034106     7.935142    -4.145968
O    -8.970945     7.349562    -4.901981
H    -8.013823     7.186250    -5.037669
H     3.538187    -8.969792     1.100108
O     2.861298    -8.338297     1.349089
H     3.335554    -7.532383     1.627845
H     3.588993     8.372579     2.230075
O     2.863659     7.727997     2.058646
H     2.279149     7.799963     2.839102
N     5.006035     9.349032     2.433349
H     5.503257     9.078538     3.210892
H     5.503782     8.957178     1.668046
