24

H     2.199831    -4.558513    -6.716269
O     2.099593    -5.013919    -5.870174
H     1.833003    -4.294643    -5.237712
H     3.309894    -2.480007    -8.412813
O     3.220315    -3.152722    -7.703456
H     4.043025    -3.049477    -7.185912
H     5.216237    -2.017705    -5.570597
O     5.550785    -2.775068    -6.122145
H     5.297589    -3.576362    -5.602306
H     3.171660    -0.904367    -5.742575
O     2.277187    -1.043185    -6.106362
H     2.296447    -1.889193    -6.578480
H     4.793257    -1.306970    -9.325200
O     3.853785    -1.185698    -9.596636
H     3.786327    -1.787111    -10.350090
H     6.977452    -1.045115    -8.400130
O     6.374860    -1.763080    -8.642360
H     6.157215    -2.159605    -7.777533
H     4.536892     0.219627    -7.935618
O     4.774616     0.245820    -7.004274
H     4.641773     1.194875    -6.752112
N     4.723411    -3.865336    -10.338608
H     4.296056    -4.134984    -9.513370
H     5.598809    -3.574348    -10.054355
