30

H    -2.379492    -3.615321     1.918206
O    -2.400546    -4.558478     2.169219
H    -1.469939    -4.779937     2.380916
H    -2.132572    -8.128669     0.384301
O    -1.782444    -7.687565     1.190915
H    -2.555079    -7.380222     1.670639
H    -5.362071    -5.051526     1.754429
O    -4.696113    -5.755275     1.510179
H    -3.831746    -5.284469     1.573929
H    -4.436344    -2.548557     4.148725
O    -5.348693    -2.232726     3.967922
H    -5.218822    -1.438338     3.401416
H    -5.865667    -3.156568     1.231425
O    -6.330308    -3.724171     1.900354
H    -6.135812    -3.253239     2.737515
H    -5.691077    -8.105075    -0.774278
O    -5.014442    -8.180680    -0.062158
H    -4.985565    -7.308012     0.364100
H    -2.087554    -3.109706     4.580918
O    -2.984874    -3.379243     4.880017
H    -3.138966    -4.275131     4.527260
H    -5.336066    -1.980916     6.979976
O    -6.006921    -1.492443     6.477692
H    -5.949704    -1.839969     5.563576
H    -3.385586    -3.548291     7.986442
O    -3.693005    -2.887906     7.362035
H    -3.343942    -3.156612     6.471773
N    -4.169865    -5.969608     4.363802
H    -5.006444    -5.936628     4.836849
H    -4.421213    -6.026509     3.423322
