39
Coordinates from ORCA-job grain_mol_opt.QMRegion
  H   -3.17247216564184      3.94534666117228     -2.26705285875425
  O   -2.52475977922710      3.26934317406817     -1.99048314423225
  H   -2.10838817967038      2.97820956984085     -2.81923907702058
  H   -3.30452253388827      6.28572601071060     -0.33791483761941
  O   -3.16864488513151      6.87693845605881     -1.11434960386341
  H   -3.15660255699972      7.78989436026260     -0.77729622816633
  H   -3.92581671341534      5.96255978458523     -2.64258117481505
  O   -4.18642200802005      5.07803877188898     -2.96500596425122
  H   -4.02504508793484      5.05996251147374     -3.93031066340868
  H   -3.25055540584071      4.89589277297505      1.29656873358367
  O   -4.04599221281422      5.28169869033192      0.85937260759559
  H   -4.37215750252209      5.88457335329643      1.58386592573269
  H   -5.13626868669838      4.10264440534677      0.25097418581421
  O   -5.55848783353740      3.25214266338483      0.01413305287717
  H   -6.50731806395813      3.32092490509625     -0.19834243901841
  H   -1.84427596714747      9.60100935960321     -0.74953170766818
  O   -2.68962931299384      9.44295855832956     -0.25153340834041
  H   -3.23510116651479     10.21525134897680     -0.40857803397275
  H   -5.81289933742246      4.68994125736216     -3.00453250723727
  O   -6.76060686429421      4.56344569512046     -3.26742755260472
  H   -6.69772425308395      3.83711295452166     -3.93092250244755
  H   -7.60780897958554      3.66198024339089     -1.97139955459553
  O   -7.94673590179550      3.10868738884644     -1.23560400420478
  H   -7.80343424239973      2.19476178030395     -1.58135963007149
  H   -4.40462803615175      6.51398162237382      3.63727568463295
  O   -4.60226501288991      6.95357275838171      2.78569701025719
  H   -3.80107676606742      7.48730818223928      2.61491727975502
  H   -5.79372579186901      7.34877435580480     -4.49221646676255
  O   -6.38593572132721      6.73640979741000     -4.97613270705495
  H   -6.57856193514529      6.01046405423803     -4.34127148508839
  H   -4.14243781974584      8.99646433606662     -3.22603828155040
  O   -4.68834042565201      8.20347254897622     -3.35430565808516
  H   -5.11187487140077      8.01762558194969     -2.49988102350438
  H   -9.12996951643925      7.78795838903819     -3.96341097512904
  O   -9.06848824151442      7.34898487001716     -4.81685132166961
  H   -8.10422829123936      7.22873004913403     -4.95759245226644
  O   -6.38484355608813      7.04536095975259     -1.26786467672808
  H   -6.82016733662373      6.28492483542716     -1.67271680413753
  H   -5.79479261456826      6.65889006250042     -0.61093375174247
