603

H     0.204338     3.037987    -0.683182
O     0.728661     2.371942    -1.178169
H     1.667040     2.501750    -0.903879
H    -0.061557    -1.305710     3.141023
O     0.328697    -0.604043     2.597156
H    -0.150286     0.208210     2.832210
H    -2.393647     2.412766    -0.539400
O    -2.180536     1.941301     0.283389
H    -2.196825     0.993689     0.057322
H    -4.652531     0.541684     2.177561
O    -4.967892    -0.392251     2.189659
H    -4.463047    -0.868175     1.522066
H     0.074615    -0.304468     0.943347
O    -0.122048    -0.066948     0.016422
H     0.213580     0.831328    -0.101673
H    -0.135638    -3.577170     3.765460
O    -0.415316    -2.747644     4.186558
H     0.230510    -2.577167     4.888665
H    -4.880164     2.526069     1.328296
O    -4.239463     2.116767     1.941965
H    -3.397060     2.101441     1.428762
H    -3.247610     3.901234    -2.212441
O    -2.508662     3.305189    -1.983139
H    -2.150587     3.019364    -2.843517
H    -0.108749    -3.800391     0.490552
O     0.230501    -2.982307     0.908030
H    -0.557380    -2.497958     1.221956
H    -2.363614    -1.540569     2.461011
O    -2.174009    -2.004871     1.619206
H    -2.434596    -1.417420     0.890796
H     2.082745    -1.433144    -1.132977
O     2.316968    -1.687097    -0.216634
H     1.528883    -2.116087     0.168370
H    -1.383300     1.825491     1.907034
O    -1.473229     1.426094     2.782426
H    -1.459980     2.137305     3.448711
H     0.220672    -2.695785    -1.581438
O    -0.534725    -2.083997    -1.636163
H    -0.356707    -1.359075    -1.000255
H    -3.422900    -2.925619    -0.401296
O    -2.704544    -3.415307    -0.823077
H    -1.996058    -2.782733    -1.040740
H     2.783176     0.135185     2.923644
O     2.884061    -0.048835     3.884682
H     2.973883     0.843495     4.291031
H    -3.531210     6.380612    -0.540327
O    -3.294177     7.044430    -1.239866
H    -3.153907     7.889264    -0.768590
H     3.911325     0.594108     1.175460
O     2.961128     0.410852     1.291054
H     2.724616    -0.341690     0.711695
H    -5.774678     0.840530    -1.607913
O    -4.864664     1.169295    -1.481957
H    -4.976852     1.996905    -0.969238
H    -1.210295     5.397708     2.210080
O    -1.833517     4.649287     2.092376
H    -1.910578     4.229515     2.954444
H     3.498224     2.774466     0.417927
O     3.250502     2.731785    -0.521465
H     3.583588     1.889565    -0.871950
H     1.508086    -4.686754    -2.266807
O     1.570786    -3.909058    -1.693810
H     2.363668    -3.445677    -2.044284
H    -0.914313    -0.077607    -2.556692
O    -0.280732     0.576010    -2.879841
H    -0.021828     1.158064    -2.142092
H     1.715733    -4.677442    -0.195276
O     1.825031    -5.315215     0.546033
H     1.362677    -6.126965     0.249520
H    -1.214686    -3.259220    -2.892163
O    -1.037858    -3.940554    -3.554097
H    -0.911205    -4.788539    -3.086800
H    -2.773591     3.303168     4.702545
O    -1.792334     3.302049     4.667661
H    -1.498331     2.899783     5.503295
H     0.965367     5.036092     4.073824
O     0.018924     5.266475     4.126334
H    -0.451529     4.462306     4.383981
H    -1.713620    -4.647746    -0.385069
O    -0.947050    -5.187130    -0.101369
H    -1.292805    -5.875856     0.475829
H    -3.920859     5.834904    -2.595682
O    -4.269801     5.000433    -2.926474
H    -4.116050     4.967614    -3.894905
H    -2.413640    -3.690623     1.924329
O    -2.430235    -4.595445     2.298637
H    -1.490037    -4.832192     2.438426
H    -4.683397    -2.977948    -2.908213
O    -3.830729    -3.208671    -3.315203
H    -3.498590    -4.002748    -2.851451
H     0.349538     1.376742     4.607845
O     0.854289     2.137991     4.274672
H     0.902109     2.796207     4.982349
H    -4.638367    -5.170533    -1.583226
O    -5.340201    -4.818752    -1.008518
H    -5.126037    -5.174148    -0.124974
H     2.344186    -6.468663    -4.057823
O     2.007281    -6.138929    -3.204219
H     2.441630    -6.713939    -2.541772
H     0.479867    -3.367812    -4.017819
O     1.280131    -2.997402    -4.443190
H     0.955795    -2.627976    -5.290860
H     1.978058    -1.748430     2.969705
O     2.135381    -2.678422     2.750053
H     1.448741    -2.892618     2.084038
H    -3.005265    -1.804159    -3.218895
O    -2.584137    -0.917039    -3.154133
H    -3.241728    -0.272113    -3.471076
H    -3.189132     4.974367     1.080500
O    -3.971731     5.347130     0.627016
H    -4.387387     5.903266     1.334344
H     0.882713     2.257047     2.584777
O     0.983290     2.253830     1.613437
H     1.711236     1.632144     1.448266
H     0.189180     5.663878    -0.759065
O     0.709614     6.326998    -1.267561
H     0.850457     7.126616    -0.711068
H     0.341883     7.038754     2.591640
O    -0.019932     6.658819     1.773837
H     0.644960     5.989609     1.511343
H    -2.468949     0.211930     3.334600
O    -2.688576    -0.603445     3.838241
H    -1.927675    -0.642183     4.459572
H    -0.881377     0.549646     6.017990
O    -0.606855     0.031958     5.242496
H     0.107626    -0.570904     5.528012
H     0.729000    -4.990729     1.964078
O     0.187606    -5.101920     2.768847
H     0.333830    -6.022725     3.039651
H    -2.095791    -8.087096     0.429785
O    -1.773439    -7.599093     1.215016
H    -2.559845    -7.290564     1.672709
H    -0.384304     6.871885    -2.324139
O    -1.131886     7.290811    -2.822361
H    -1.921168     7.162906    -2.258006
H    -1.111149     4.312736     0.572154
O    -0.739219     4.375185    -0.324326
H    -1.446392     4.133366    -0.956112
H    -4.402591     2.740558     3.505748
O    -4.400242     2.909607     4.470509
H    -4.481957     2.025889     4.878534
H     2.042624    -3.579464     4.228980
O     1.980292    -4.053084     5.081452
H     2.486703    -3.516497     5.712689
H     4.702845    -3.183062     0.822143
O     4.542218    -3.104699    -0.144462
H     3.681515    -2.630094    -0.225768
H    -2.713789    -0.745496    -1.359766
O    -3.040489    -0.476944    -0.484707
H    -3.842514     0.047280    -0.689870
H    -1.611690    -0.752110    -4.640507
O    -1.104234    -0.534309    -5.443860
H    -0.396730     0.063944    -5.157118
H     1.801339    -1.702314    -3.389514
O     1.896205    -0.954825    -2.767525
H     1.116393    -0.379759    -2.894075
H     3.679434    -3.114305     2.534221
O     4.638754    -3.341488     2.458677
H     4.695285    -4.301648     2.585337
H     3.448244    -6.114848     3.103352
O     3.802772    -5.911196     2.203244
H     3.063696    -5.567250     1.661546
H    -3.341713     1.617252    -4.181048
O    -4.185127     1.144364    -3.990410
H    -4.402608     1.288324    -3.033359
H    -5.080855     4.144713     0.067747
O    -5.517706     3.277926    -0.036722
H    -6.448746     3.395743    -0.317188
H     6.747568    -1.166314    -1.371427
O     5.969697    -1.017178    -0.828345
H     5.552885    -1.885889    -0.628132
H     4.604719    -3.152797    -2.487486
O     3.738772    -2.978803    -2.906295
H     3.740630    -3.601387    -3.659603
H     4.452502    -2.289107     5.605963
O     4.110868    -2.756205     6.398610
H     4.447295    -3.660586     6.315620
H    -0.751679     6.335223     5.075692
O    -1.348857     6.909205     5.615104
H    -1.364256     7.786906     5.174935
H     4.705311    -0.122099    -1.478838
O     3.938384     0.420002    -1.743416
H     3.244872    -0.181132    -2.070407
H    -0.744530     4.533966    -4.038740
O    -1.528378     5.075445    -4.246039
H    -1.379011     5.941834    -3.821986
H     0.660639     3.214487    -2.662556
O     0.667702     3.592207    -3.570834
H     0.713392     2.829356    -4.157134
H    -5.364977    -5.199433     1.782868
O    -4.667612    -5.792335     1.425917
H    -3.827532    -5.375670     1.696683
H     7.896291    -1.664555    -4.056714
O     7.633095    -1.357376    -3.161155
H     7.142867    -0.513222    -3.310606
H     3.715779    -5.053558    -5.311123
O     4.476621    -4.676195    -4.830486
H     4.866551    -5.387371    -4.288013
H    -3.771783     0.010542     4.929224
O    -4.372500     0.472958     5.562918
H    -5.031417    -0.186508     5.854702
H     3.482553    -5.931931    -0.538905
O     4.353859    -5.681518    -0.858114
H     4.428269    -4.719714    -0.711826
H     5.005647    -0.314239    -4.167475
O     4.469618    -1.024650    -4.559362
H     4.144508    -1.613269    -3.843641
H    -1.169836     1.580813    -3.942190
O    -1.821274     2.200895    -4.326869
H    -1.465028     2.534547    -5.172777
H     4.902641    -6.305667    -2.339175
O     5.235367    -6.624664    -3.206677
H     6.053095    -7.107741    -3.023440
H     8.757447    -5.075430    -2.931974
O     8.059098    -5.491670    -2.382207
H     8.095572    -6.449080    -2.485519
H     2.339289     4.727925     0.447008
O     1.760866     4.708093     1.218655
H     1.404816     3.787222     1.295734
H    -4.399080    -2.641937     4.223026
O    -5.293791    -2.303690     4.021788
H    -5.158797    -1.521474     3.447345
H    -5.831375    -3.201434     1.309633
O    -6.292625    -3.760138     1.977550
H    -6.104239    -3.325596     2.828591
H     1.695071     3.467686     6.856813
O     1.070882     3.982812     6.324002
H     0.288210     4.134119     6.896619
H     5.016235    -2.160777     3.599592
O     5.036307    -1.443036     4.264224
H     4.223032    -0.888270     4.109671
H     2.412280    -5.574303     4.820025
O     2.793660    -6.456938     4.558144
H     2.049546    -7.039724     4.384320
H     2.262200    -4.502850    -6.807635
O     2.099208    -4.989184    -5.989958
H     1.833200    -4.298791    -5.334460
H     6.452693    -4.089412    -0.521742
O     7.209775    -4.488520    -0.061936
H     7.714771    -4.912473    -0.784167
H    -1.717434     4.482521     7.699773
O    -0.818177     4.581684     8.084032
H    -0.639075     5.541149     8.109957
H    -5.125076     5.698020    -5.592881
O    -4.515689     4.935869    -5.614750
H    -3.759919     5.152319    -6.181810
H     3.175161    -2.592237    -8.477340
O     3.111583    -3.059239    -7.632293
H     3.996685    -3.002872    -7.234567
H    -0.668316     8.834460    -2.275309
O    -0.546196     9.662439    -1.755639
H     0.216719     9.488688    -1.179571
H     2.080806    -0.910577     5.200182
O     1.509336    -1.438430     5.787008
H     1.603004    -1.094259     6.684706
H     5.173828    -2.011200    -5.605043
O     5.547658    -2.757422    -6.144064
H     5.259183    -3.563584    -5.645633
H     5.716435    -5.206782     4.664776
O     5.194682    -5.123209     5.491895
H     4.474602    -5.756906     5.406903
H    -3.961764     1.136181     7.003423
O    -3.769539     1.611429     7.847484
H    -4.646076     1.995222     8.109712
H    -1.859971     9.618484    -0.740655
O    -2.719652     9.489705    -0.265597
H    -3.332380     10.117753    -0.651734
H    -5.950975     4.689151    -2.935896
O    -6.859695     4.569122    -3.279495
H    -6.768931     3.867653    -3.957439
H     0.112855    -7.057723    -1.161322
O     0.578703    -7.492962    -0.414281
H    -0.099568    -7.690796     0.234619
H    -7.637858     3.786881    -1.970458
O    -7.897019     3.198532    -1.230747
H    -7.753160     2.290492    -1.571697
H     3.989210    -0.889908     6.973163
O     3.996034     0.074271     6.964391
H     4.807923     0.365886     6.533239
H     2.255467     5.806919    -1.182860
O     3.191863     5.515543    -1.070779
H     3.368012     4.976641    -1.864647
H     6.569131    -5.915525     0.649835
O     6.201876    -6.652456     1.183102
H     5.297067    -6.377214     1.411008
H    -3.861209     4.718746     7.781643
O    -3.294410     4.257728     7.121465
H    -3.486220     3.313863     7.231028
H     5.782634    -7.932758     0.113748
O     5.494297    -8.619704    -0.523395
H     4.664943    -8.294419    -0.917279
H    -0.546006     2.036826     7.687680
O    -1.179779     1.972006     6.953056
H    -2.047654     1.828537     7.350328
H    -6.374052    -0.127430     1.059598
O    -6.694645    -0.210530     0.146807
H    -7.612964    -0.482761     0.165110
H    -5.359777    -3.066443    -0.595554
O    -5.107652    -2.364255     0.030315
H    -5.679659    -1.592385    -0.155482
H     4.315899     5.590280     0.314377
O     4.651103     5.689831     1.219188
H     3.956630     6.198592     1.673318
H    -9.035530    -1.751000    -2.255549
O    -8.486886    -1.549759    -1.469976
H    -8.612583    -2.287295    -0.832971
H    -5.527811     3.474760    -5.526848
O    -6.043461     2.762628    -5.112582
H    -5.375730     2.177752    -4.700056
H     3.182085    -0.870513    -5.666762
O     2.328574    -0.990638    -6.135724
H     2.412290    -1.841566    -6.605741
H     8.101087    -1.249737    -5.970864
O     8.195982    -2.164287    -5.628765
H     7.296763    -2.527722    -5.781312
H     7.529265     1.136008    -6.282919
O     7.379400     0.270103    -6.692627
H     6.398448     0.204038    -6.729857
H    -7.846191    -3.700822     0.924440
O    -8.525115    -3.593932     0.240588
H    -8.426593    -4.352727    -0.361847
H    -2.413105     8.737258     1.297250
O    -2.260440     8.147986     2.049336
H    -1.489507     7.596622     1.825058
H    -4.443672     6.429998     3.500370
O    -4.615313     6.856439     2.644354
H    -3.853287     7.444206     2.504902
H     3.399441     3.460998    -3.585361
O     3.245168     4.429870    -3.491806
H     2.279824     4.493466    -3.596900
H    -6.109187    -1.605432    -3.446884
O    -6.189764    -2.185625    -2.663416
H    -6.974087    -1.880839    -2.153700
H     6.478641     1.060103     4.725585
O     6.084170     1.597303     5.429391
H     6.270344     2.516734     5.139614
H     1.360118     1.737717    -5.830604
O     1.168454     1.140963    -5.076428
H     1.530827     0.278126    -5.347505
H    -2.476425     2.952580     10.481424
O    -2.262823     2.045762     10.206573
H    -2.861149     1.845969     9.474752
H     7.638710    -0.484575     3.067384
O     6.887745     0.090102     3.235471
H     6.196822    -0.511216     3.616179
H    -5.639369    -8.056915    -0.713679
O    -4.903498    -8.124895    -0.068328
H    -4.908422    -7.308429     0.454880
H    -5.174815    -0.115508    -4.719021
O    -5.790582    -0.828152    -4.959356
H    -6.629919    -0.387896    -5.155719
H     1.891304    -0.181841    -7.526050
O     1.689792     0.291490    -8.369405
H     2.257270    -0.116942    -9.027185
H     4.853044    -1.347200    -9.403436
O     3.920497    -1.132211    -9.645847
H     3.918509    -1.034278    -10.600974
H     7.580493    -2.557867     4.179712
O     7.725347    -2.592423     3.219833
H     7.233916    -3.384806     2.948698
H     6.740589    -5.882054     2.662736
O     6.802110    -5.206561     3.363648
H     7.678172    -5.291378     3.781315
H    -1.824787     8.946597     3.500891
O    -1.576437     9.250509     4.399287
H    -2.424884     9.381210     4.855953
H    -7.390765     1.567911    -5.250258
O    -7.963764     0.822433    -5.005149
H    -8.866243     1.220269    -4.927944
H     6.913045    -1.064613    -8.456205
O     6.380110    -1.834337    -8.696828
H     6.094323    -2.194514    -7.834677
H    -1.687235     6.252827    -7.022339
O    -2.081479     5.425565    -6.749513
H    -1.832979     5.295211    -5.785841
H     0.011631     3.306427     9.018709
O     0.210470     2.386647     9.272346
H    -0.586863     2.120602     9.779429
H     6.766744    -2.764486    -2.723553
O     6.235360    -3.508500    -2.386228
H     6.706508    -4.319874    -2.627820
H    -4.070265    -3.067738    -4.951544
O    -4.224737    -2.953861    -5.916157
H    -4.774550    -2.162459    -5.970878
H     1.992245     2.183316     8.457379
O     2.655086     2.297301     7.766565
H     3.078550     1.427824     7.650139
H    -6.893518    -5.204913    -1.403132
O    -7.808882    -5.475656    -1.647942
H    -7.944224    -5.072495    -2.530325
H    -3.822977     5.249711     5.698786
O    -3.791988     6.018613     5.108481
H    -2.858532     6.314676     5.202254
H    -7.879785     0.083696    -1.966750
O    -7.391450     0.808469    -2.379982
H    -7.620973     0.798234    -3.332958
H     5.845168     0.143981     0.398050
O     5.623628     0.865481     1.018841
H     6.133884     0.670060     1.831916
H    -6.206011     3.299124     7.398002
O    -6.076268     2.780128     8.225862
H    -6.675489     2.017992     8.137455
H     2.297559    -8.063899    -0.862834
O     2.973319    -8.047927    -1.560147
H     2.750101    -8.762221    -2.173756
H    -2.737128    -3.952436    -6.207563
O    -1.980787    -4.516066    -5.978158
H    -1.705429    -4.226701    -5.080021
H    -5.637274     3.752890     5.310953
O    -6.286409     4.147586     5.929240
H    -6.124563     5.091937     5.916771
H    -1.002673    -7.106518    -3.178301
O    -0.530791    -6.435989    -2.650387
H     0.376356    -6.365433    -3.031969
H     4.453586     2.023668     5.119067
O     3.511533     2.261719     4.999766
H     3.127873     2.276458     5.881995
H     4.115343     4.662745     6.294637
O     4.195308     5.393170     5.676768
H     3.626633     5.153019     4.906590
H     2.769856     3.623459     3.916431
O     2.591261     4.563518     3.751389
H     2.470103     4.662899     2.785315
H     9.402993     0.234163    -1.083807
O     8.590804     0.391403    -0.598741
H     8.420245    -0.425304    -0.100219
H    -2.091804     5.312047     10.651009
O    -2.812502     4.681995     10.882307
H    -3.030439     4.857992     11.797829
H     7.985650    -2.992492     0.308010
O     8.404464    -2.144089     0.562198
H     8.341264    -2.140381     1.524778
H     5.374882     3.675878     3.516332
O     6.032250     3.941672     4.181111
H     5.619082     4.657930     4.685125
H    -4.200209     5.011860     9.786813
O    -4.834099     5.162371     9.065395
H    -5.444925     4.412905     9.063011
H    -7.001493    -3.479149    -3.490395
O    -7.621535    -4.091366    -3.938828
H    -7.100670    -4.531982    -4.642030
H     0.035646     6.123964     10.769915
O    -0.829808     6.453902     10.523755
H    -0.715647     6.885819     9.657927
H     2.589684     1.511640    -4.114336
O     3.469700     1.862531    -3.878404
H     3.788576     1.349596    -3.105691
H    -6.957956    -0.230666     7.218487
O    -7.467278     0.546922     7.499967
H    -8.091783     0.729779     6.796900
H    -2.720318    -9.870618    -0.846383
O    -2.659043    -8.928626    -1.004980
H    -3.565379    -8.564144    -0.762983
H    -10.071449     3.071929    -4.892723
O    -10.186388     2.153942    -4.612822
H    -10.401584     2.236589    -3.662836
H    -2.050993    -3.026100     4.604725
O    -2.925090    -3.467657     4.674850
H    -2.918898    -4.084852     3.918092
H    -0.155474    -7.979650     2.469027
O     0.671090    -7.767547     2.915778
H     1.389183    -8.062299     2.328131
H     6.723894    -2.365884     6.375127
O     7.173636    -3.073875     5.909167
H     6.545237    -3.810102     5.871483
H    -5.254835    -2.012235     6.939059
O    -5.932281    -1.514607     6.456259
H    -5.916733    -1.890884     5.546801
H     0.831773     3.049942    -7.118932
O     1.749864     2.719903    -7.177247
H     1.735119     1.974698    -7.805058
H    -3.955025     8.750545     6.678157
O    -3.953513     8.749079     5.720789
H    -4.078001     7.821626     5.452457
H    -2.071508     10.320649    -2.732248
O    -2.973903     10.500501    -3.032828
H    -2.904574     11.135848    -3.744726
H     9.429035    -4.045127     4.022362
O     9.149866    -4.724116     4.644202
H     8.721248    -4.253008     5.369662
H    -0.724195    -5.985324    -5.855400
O    -0.020713    -6.551362    -5.521222
H     0.814943    -6.090536    -5.739018
H     1.820264     8.284024     0.663573
O     1.515497     8.605873    -0.213486
H     2.329560     8.646439    -0.744632
H     3.494448     2.948218    -6.671336
O     4.321919     2.653832    -6.264465
H     4.077916     2.383375    -5.353972
H     3.727912     7.138783    -1.234522
O     3.932196     8.074944    -1.447202
H     4.300041     8.020865    -2.341123
H     4.387495     0.016161    -7.926621
O     4.770704     0.162419    -7.059773
H     4.582275     1.092622    -6.811319
H     6.033985     1.949276    -0.489152
O     6.597151     2.141675    -1.252859
H     7.423576     1.665431    -1.058712
H     6.702388    -8.415643    -1.632247
O     7.335862    -8.199213    -2.368641
H     7.706338    -9.029788    -2.662389
H    -5.290785    -5.784418    -5.416316
O    -5.909187    -5.112765    -5.729376
H    -5.359451    -4.343754    -5.966505
H     0.686406     7.173698     7.600049
O    -0.214765     7.199221     7.960552
H    -0.771281     7.213967     7.143796
H    -8.890444    -2.836444    -4.103803
O    -9.411548    -2.028685    -3.934774
H    -9.127603    -1.363024    -4.565023
H    -2.395828    -5.983615    -2.155203
O    -3.274102    -5.697141    -2.423215
H    -3.462057    -6.072046    -3.308711
H    -2.975170    -5.892720    -5.421337
O    -3.573705    -6.503009    -4.948467
H    -3.090966    -7.323132    -4.783120
H    -1.394973     3.740002    -6.984671
O    -0.852876     2.984316    -6.716706
H    -1.091515     2.199822    -7.266510
H    -0.208029     0.431696    -8.223535
O    -1.103323     0.666190    -7.938177
H    -1.277513     0.141303    -7.140809
H    -10.425207     4.046686    -2.726802
O    -10.490605     3.267178    -2.159588
H    -9.660849     3.241764    -1.651373
H     4.582443     4.092676     1.711979
O     4.375496     3.170572     1.987974
H     5.093231     2.596798     1.707315
H     6.486128     1.421051    -4.231680
O     6.187969     0.791393    -3.540391
H     6.215805     1.284439    -2.694467
H     9.644318    -2.202675    -0.946134
O     9.919554    -1.980795    -1.844689
H     9.117429    -1.646774    -2.287194
H     10.023386    -3.315602    -2.955563
O     9.871043    -4.003641    -3.638835
H     9.452892    -3.519244    -4.362663
H    -7.679271    -8.578329    -1.675359
O    -6.942775    -7.982266    -1.803466
H    -7.322260    -7.070067    -1.792112
H     4.153932     6.098187    -3.827166
O     4.814123     6.800270    -3.742782
H     5.651429     6.348191    -3.606262
H     0.111878    -8.158823    -5.232373
O     0.137160    -9.141588    -5.101350
H     0.288644    -9.504557    -5.974095
H    -2.314764    -8.667824    -2.730894
O    -2.082176    -8.401779    -3.640096
H    -1.435710    -9.019205    -4.001050
H     2.206679    -10.802162    -3.519271
O     2.156231    -9.847946    -3.491274
H     1.370121    -9.578659    -4.017052
H     6.833619     3.351669    -4.586447
O     6.889432     2.674466    -5.288835
H     6.095268     2.810650    -5.827898
H    -3.543214    -3.729181     7.712981
O    -3.659027    -2.941027     7.183777
H    -3.408507    -3.178860     6.264978
H    -0.631551    -3.349190    -6.735459
O    -0.002869    -2.616135    -6.743146
H    -0.486661    -1.842548    -6.399898
H     0.657668     0.459716     8.744356
O     0.665431    -0.254231     8.102834
H    -0.256485    -0.544499     8.016248
H    -5.843318     7.370747    -4.245761
O    -6.345479     6.751369    -4.806886
H    -6.631198     6.019777    -4.215911
H    -4.289823     9.107465    -3.257265
O    -4.823653     8.310002    -3.151495
H    -4.414017     7.830794    -2.413102
H    -9.719047     5.793958    -4.637366
O    -10.250722     4.988144    -4.474071
H    -11.132116     5.187838    -4.791463
H     2.772196     6.520873     6.135986
O     1.812046     6.615538     6.234680
H     1.469882     5.701667     6.132229
H     4.797379     8.562055     0.079868
O     5.115799     8.562288     1.000392
H     5.524355     7.698593     1.130035
H     4.157995    -7.407021    -4.367258
O     3.395458    -7.690665    -4.903779
H     3.121643    -8.535134    -4.530855
H     0.375063     8.663200     4.234720
O     1.053463     8.019800     4.005112
H     1.281726     7.526649     4.819111
H     5.232467     4.211038    -3.166869
O     6.194085     4.177738    -3.118507
H     6.404474     3.599038    -2.368946
H    -2.560009    -1.549571     7.566497
O    -2.050730    -0.755576     7.786253
H    -2.676944    -0.130936     8.162452
H    -9.038064     7.934771    -4.136431
O    -8.974702     7.350681    -4.893580
H    -8.017560     7.188682    -5.030298
H     3.552576    -8.969100     1.068396
O     2.875623    -8.338118     1.318630
H     3.349783    -7.532960     1.599416
H     3.580278     8.183111     1.826285
O     2.791123     7.617771     1.938637
H     2.345014     7.851978     2.765308
N     8.782684    -3.757643    -8.188914
H     8.869309    -3.267704    -7.359618
H     8.073249    -3.286789    -8.643067
