24
Coordinates from ORCA-job grain_mol_opt.QMRegion
  H   4.43055470942783     -2.37543532317026      5.49835471818349
  O   4.12840383425506     -2.83702980571356      6.31104598478772
  H   4.50977802309857     -3.73039482475041      6.19872557115916
  H   2.02362741456730     -0.82597957894903      5.16444268731170
  O   1.51417402846905     -1.38397269470015      5.78553851984169
  H   1.53154026213498     -0.97844604900975      6.66679045352016
  H   4.40466126912173     -0.86850670124933      6.88289265503158
  O   4.51066992883618      0.05295056793321      7.16328524980731
  H   5.19845394058714      0.43691479759310      6.59650594890238
  H   -0.08917680718651      3.37071963833130      8.93442259631111
  O   0.17156420330828      2.47045995412652      9.23211023338096
  H   -0.60666617223861      2.20237074751365      9.76880435424572
  H   2.32053727808073      2.20424895819027      8.54369938930067
  O   2.85188229956797      2.35285961166493      7.74968208335563
  H   3.35233631018570      1.52556268211337      7.66424056495248
  H   4.45589718980467      2.02364240403654      5.08228992836558
  O   3.52178430247522      2.25437276615118      4.91553806875145
  H   3.08334289150159      2.26444718667258      5.77693591587113
  H   0.57390118159692      0.51832260917266      8.60563403753651
  O   0.59466823516661     -0.38171684758731      8.25291568664449
  H   -0.35011302432198     -0.61033430235331      8.14458406140280
  O   3.04931416128077      0.12282527329332      9.80241924698366
  H   2.34306984569521     -0.48424532315435      9.54389224333683
  H   3.77981097080576     -0.10119579359859      9.21110923422026
