603

H     0.196016     3.028272    -0.670746
O     0.718721     2.360668    -1.165157
H     1.657770     2.489903    -0.892702
H    -0.070491    -1.306600     3.162240
O     0.320826    -0.606647     2.616946
H    -0.157675     0.206498     2.850163
H    -2.401902     2.406344    -0.523627
O    -2.187254     1.936505     0.299651
H    -2.206835     0.988224     0.076464
H    -4.586310     0.614864     2.258070
O    -4.886911    -0.327254     2.219831
H    -4.309156    -0.756936     1.576145
H     0.064712    -0.310418     0.962549
O    -0.132946    -0.075206     0.035223
H     0.203351     0.822486    -0.085608
H    -0.145372    -3.576858     3.791965
O    -0.423372    -2.746212     4.211671
H     0.223328    -2.574696     4.912610
H    -4.887359     2.527264     1.348270
O    -4.240260     2.127267     1.961124
H    -3.400659     2.108529     1.443923
H    -3.257331     3.891961    -2.197663
O    -2.518381     3.296023    -1.968430
H    -2.161671     3.007912    -2.828667
H    -0.123081    -3.806577     0.516766
O     0.217540    -2.988944     0.933390
H    -0.569390    -2.502647     1.247179
H    -2.374056    -1.541780     2.486639
O    -2.182997    -2.007705     1.645562
H    -2.443469    -1.421601     0.916117
H     2.069935    -1.445291    -1.113421
O     2.304122    -1.697965    -0.196624
H     1.515675    -2.124940     0.189573
H    -1.389877     1.823045     1.923649
O    -1.478258     1.425548     2.799977
H    -1.464669     2.138219     3.464607
H     0.205071    -2.706844    -1.557433
O    -0.551862    -2.096747    -1.610686
H    -0.371120    -1.368979    -0.978627
H    -3.443757    -2.927495    -0.372656
O    -2.726318    -3.420374    -0.790133
H    -2.015559    -2.790972    -1.011569
H     2.776266     0.129985     2.938659
O     2.878258    -0.051845     3.900144
H     2.968966     0.841447     4.304059
H    -3.536094     6.375235    -0.530682
O    -3.299593     7.037674    -1.231985
H    -3.157497     7.882986    -0.762280
H     3.902286     0.584465     1.188071
O     2.952137     0.402175     1.306032
H     2.714078    -0.350728     0.727709
H    -5.788589     0.831865    -1.574495
O    -4.876767     1.159536    -1.454452
H    -4.986495     1.991639    -0.948439
H    -1.212601     5.395550     2.219647
O    -1.836911     4.647906     2.103708
H    -1.914109     4.229448     2.966438
H     3.490655     2.762912     0.426707
O     3.241414     2.719480    -0.512095
H     3.573494     1.876641    -0.862395
H     1.488443    -4.700277    -2.240212
O     1.553299    -3.922608    -1.667734
H     2.346929    -3.460962    -2.020317
H    -0.928505    -0.089433    -2.535880
O    -0.295097     0.562798    -2.861911
H    -0.033621     1.146058    -2.126006
H     1.700134    -4.687033    -0.169058
O     1.809179    -5.323859     0.573471
H     1.345492    -6.135342     0.279038
H    -1.231287    -3.270535    -2.865325
O    -1.058673    -3.954713    -3.525603
H    -0.931073    -4.800986    -3.055892
H    -2.775838     3.306834     4.717041
O    -1.794271     3.306589     4.681635
H    -1.499866     2.905116     5.517410
H     0.964763     5.035395     4.080963
O     0.018772     5.267458     4.134479
H    -0.452815     4.464330     4.393555
H    -1.731267    -4.654173    -0.354124
O    -0.965040    -5.194646    -0.072780
H    -1.309913    -5.880082     0.508823
H    -3.928522     5.825597    -2.583997
O    -4.279372     4.991261    -2.913058
H    -4.126028     4.955993    -3.881364
H    -2.426725    -3.691032     1.954344
O    -2.443592    -4.596349     2.327811
H    -1.503639    -4.832711     2.468982
H    -4.695307    -2.986891    -2.882532
O    -3.842522    -3.222350    -3.288452
H    -3.514178    -4.014480    -2.819585
H     0.345933     1.378391     4.622833
O     0.851944     2.138231     4.288041
H     0.900130     2.798008     4.994144
H    -4.659770    -5.175706    -1.548181
O    -5.363409    -4.824353    -0.976134
H    -5.144284    -5.169923    -0.090675
H     2.320802    -6.485923    -4.029529
O     1.984996    -6.156967    -3.175628
H     2.421310    -6.729696    -2.512670
H     0.459224    -3.384064    -3.994029
O     1.260932    -3.017325    -4.419327
H     0.939452    -2.646068    -5.267155
H     1.968941    -1.752268     2.989534
O     2.124837    -2.683087     2.772177
H     1.437428    -2.897519     2.107026
H    -3.021062    -1.815845    -3.193057
O    -2.599822    -0.928632    -3.130154
H    -3.257177    -0.283547    -3.446944
H    -3.193561     4.972108     1.092737
O    -3.975748     5.345728     0.639240
H    -4.390300     5.903048     1.346162
H     0.877532     2.253502     2.597699
O     0.977204     2.248638     1.626273
H     1.703969     1.625464     1.461333
H     0.183116     5.654026    -0.752762
O     0.703279     6.316046    -1.263078
H     0.845738     7.116189    -0.707966
H     0.342157     7.035808     2.595259
O    -0.021149     6.655080     1.778545
H     0.642242     5.984087     1.516600
H    -2.475194     0.211105     3.357866
O    -2.690753    -0.602991     3.864530
H    -1.929508    -0.638662     4.484728
H    -0.883473     0.555801     6.037245
O    -0.608482     0.037143     5.262625
H     0.104271    -0.567140     5.548745
H     0.715197    -4.994780     1.992457
O     0.174369    -5.104580     2.797773
H     0.320483    -6.024676     3.070613
H    -2.114888    -8.091311     0.468473
O    -1.790940    -7.603453     1.252912
H    -2.576097    -7.291185     1.710261
H    -0.390860     6.859681    -2.319291
O    -1.138688     7.278723    -2.817275
H    -1.927357     7.152216    -2.251738
H    -1.116802     4.307220     0.583273
O    -0.745920     4.367992    -0.313760
H    -1.453788     4.125005    -0.944259
H    -4.407174     2.745627     3.525308
O    -4.401364     2.915419     4.489867
H    -4.485793     2.032023     4.898425
H     2.032789    -3.580568     4.252583
O     1.972077    -4.053052     5.105905
H     2.478702    -3.514874     5.735592
H     4.689336    -3.194155     0.841677
O     4.527002    -3.119337    -0.124614
H     3.667576    -2.642561    -0.206527
H    -2.726859    -0.753018    -1.335655
O    -3.051184    -0.482742    -0.460331
H    -3.855218     0.039024    -0.665307
H    -1.627928    -0.766987    -4.617628
O    -1.122433    -0.551866    -5.422817
H    -0.412694     0.045583    -5.139362
H     1.786843    -1.718546    -3.369657
O     1.880028    -0.971219    -2.747397
H     1.101805    -0.394796    -2.876726
H     3.668069    -3.120822     2.555231
O     4.627084    -3.349607     2.480015
H     4.682490    -4.309548     2.607743
H     3.434044    -6.120101     3.130426
O     3.787683    -5.920227     2.229132
H     3.049049    -5.574648     1.687772
H    -3.357446     1.603507    -4.159827
O    -4.201466     1.132244    -3.966731
H    -4.417665     1.277510    -3.009419
H    -5.088185     4.142995     0.083773
O    -5.524311     3.276186    -0.021731
H    -6.457675     3.393132    -0.293942
H     6.729776    -1.182403    -1.365978
O     5.958589    -1.032768    -0.812714
H     5.540394    -1.900555    -0.613624
H     4.588237    -3.170746    -2.467797
O     3.719500    -3.000291    -2.882265
H     3.721692    -3.619628    -3.637911
H     4.445803    -2.289921     5.623967
O     4.105467    -2.755130     6.418385
H     4.440215    -3.660168     6.336239
H    -0.749391     6.338503     5.082455
O    -1.344866     6.914682     5.621538
H    -1.360093     7.791212     5.179220
H     4.693308    -0.137668    -1.466064
O     3.925257     0.404148    -1.728085
H     3.232207    -0.197030    -2.055788
H    -0.755997     4.517927    -4.028820
O    -1.539314     5.060381    -4.236157
H    -1.387880     5.927304    -3.814067
H     0.649754     3.200122    -2.651658
O     0.654893     3.576017    -3.560658
H     0.701340     2.811999    -4.145460
H    -5.377478    -5.195104     1.817301
O    -4.683063    -5.793169     1.463961
H    -3.841836    -5.376109     1.730785
H     7.871411    -1.691783    -4.039458
O     7.615460    -1.378109    -3.139474
H     7.127684    -0.534624    -3.295392
H     3.690380    -5.076918    -5.284436
O     4.453894    -4.702846    -4.805588
H     4.839768    -5.413165    -4.259867
H    -3.777293     0.016110     4.951898
O    -4.373596     0.481040     5.587829
H    -5.037406    -0.174548     5.877297
H     3.464368    -5.943560    -0.512546
O     4.336077    -5.696203    -0.833031
H     4.412282    -4.733747    -0.689874
H     4.989312    -0.338908    -4.161045
O     4.453828    -1.051032    -4.549347
H     4.129423    -1.633851    -3.830272
H    -1.184502     1.565979    -3.925089
O    -1.836588     2.185159    -4.310354
H    -1.480482     2.516997    -5.157133
H     4.880964    -6.323946    -2.311154
O     5.212022    -6.649614    -3.177269
H     6.030827    -7.129681    -2.991963
H     8.734421    -5.092421    -2.923573
O     8.044564    -5.510108    -2.363437
H     8.079459    -6.467495    -2.464789
H     2.333938     4.718554     0.453050
O     1.756559     4.701086     1.225577
H     1.399716     3.780632     1.304989
H    -4.412411    -2.634970     4.248573
O    -5.307266    -2.299517     4.045665
H    -5.171200    -1.518224     3.470435
H    -5.779328    -3.198114     1.399035
O    -6.267988    -3.763992     2.057489
H    -6.068471    -3.339470     2.917556
H     1.696277     3.472355     6.866325
O     1.072147     3.987481     6.333491
H     0.290010     4.140107     6.906443
H     5.007079    -2.166444     3.616871
O     5.028900    -1.447656     4.280309
H     4.216266    -0.891875     4.125178
H     2.401760    -5.574288     4.847255
O     2.781396    -6.458429     4.587181
H     2.036001    -7.040167     4.415414
H     2.242388    -4.522919    -6.781844
O     2.075140    -5.010746    -5.965498
H     1.811534    -4.319079    -5.310018
H     6.438085    -4.103149    -0.503979
O     7.192641    -4.505426    -0.042237
H     7.698603    -4.928307    -0.763845
H    -1.714166     4.491823     7.711611
O    -0.814351     4.591340     8.094852
H    -0.634454     5.550637     8.117905
H    -5.136960     5.683872    -5.579739
O    -4.529206     4.920547    -5.601393
H    -3.773013     5.135370    -6.168584
H     3.261982    -2.534921    -8.432195
O     3.176373    -3.067206    -7.630421
H     4.053810    -3.041855    -7.203268
H    -0.673020     8.822291    -2.274050
O    -0.549103     9.651574    -1.756684
H     0.214262     9.477971    -1.181107
H     2.075379    -0.909809     5.217936
O     1.505447    -1.436641     5.807257
H     1.599655    -1.089503     6.703742
H     5.191714    -2.028680    -5.692901
O     5.537137    -2.795159    -6.215199
H     5.265002    -3.584841    -5.696341
H     5.705163    -5.211179     4.687616
O     5.185035    -5.126137     5.515583
H     4.463373    -5.758226     5.432017
H    -3.962419     1.146723     7.024928
O    -3.768801     1.624092     7.867843
H    -4.645110     2.008779     8.129775
H    -1.861332     9.610975    -0.739651
O    -2.720589     9.484642    -0.263155
H    -3.333175     10.112028    -0.650548
H    -5.960848     4.681220    -2.919441
O    -6.869572     4.562007    -3.263331
H    -6.779988     3.858075    -3.938857
H     0.092773    -7.067863    -1.127686
O     0.558895    -7.503448    -0.381028
H    -0.118488    -7.697438     0.269966
H    -7.646907     3.781481    -1.951664
O    -7.910689     3.199628    -1.208918
H    -7.763689     2.287591    -1.538202
H     3.985913    -0.887371     6.988398
O     3.994405     0.076778     6.978972
H     4.805334     0.366735     6.544870
H     2.249283     5.794100    -1.179273
O     3.185456     5.502429    -1.067240
H     3.360458     4.961439    -1.860162
H     6.552158    -5.928563     0.672417
O     6.185177    -6.664877     1.207272
H     5.281059    -6.388060     1.436203
H    -3.857793     4.731174     7.795066
O    -3.291325     4.268401     7.136046
H    -3.485188     3.324983     7.246407
H     5.764239    -7.945297     0.141739
O     5.475532    -8.633200    -0.494626
H     4.645225    -8.308507    -0.887160
H    -0.545799     2.045202     7.703160
O    -1.180286     1.980083     6.969357
H    -2.048181     1.838340     7.367361
H    -6.224218    -0.105921     1.097409
O    -6.742626    -0.265335     0.284235
H    -7.630509    -0.492642     0.611395
H    -5.351111    -3.135124    -0.542699
O    -5.128056    -2.423091     0.089386
H    -5.760073    -1.682903    -0.070569
H     4.311739     5.578122     0.315996
O     4.647963     5.680006     1.220204
H     3.953999     6.189798     1.673867
H    -9.060444    -1.800552    -2.346499
O    -8.535467    -1.547472    -1.555870
H    -8.571165    -2.297175    -0.925118
H    -5.542831     3.459947    -5.508076
O    -6.058864     2.748812    -5.092556
H    -5.391191     2.165557    -4.677719
H     3.165342    -0.894000    -5.651366
O     2.308588    -1.014892    -6.115480
H     2.393544    -1.864381    -6.588081
H     8.098564    -1.353039    -6.036035
O     8.108456    -2.216711    -5.578995
H     7.251847    -2.617335    -5.827084
H     7.602911     0.986838    -6.317611
O     7.413662     0.138139    -6.729915
H     6.432253     0.087489    -6.763769
H    -7.773592    -3.755810     0.952365
O    -8.488511    -3.645782     0.290881
H    -8.413020    -4.412065    -0.312704
H    -2.412704     8.734601     1.300787
O    -2.259535     8.147135     2.054136
H    -1.489797     7.593992     1.829958
H    -4.443663     6.434009     3.511016
O    -4.615601     6.859773     2.654706
H    -3.852557     7.445677     2.513288
H     3.387682     3.442861    -3.577880
O     3.233949     4.412110    -3.485291
H     2.268718     4.475944    -3.590422
H    -6.090008    -1.635830    -3.579072
O    -6.186018    -2.182430    -2.764526
H    -6.959209    -1.844948    -2.268316
H     6.474456     1.055129     4.734153
O     6.082098     1.594192     5.437771
H     6.268161     2.512815     5.145226
H     1.344399     1.715647    -5.817117
O     1.151684     1.120334    -5.062018
H     1.515272     0.257262    -5.331586
H    -2.471715     2.968855     10.496736
O    -2.259385     2.061141     10.224028
H    -2.858394     1.860416     9.492880
H     7.631190    -0.493859     3.077077
O     6.881256     0.081659     3.246752
H     6.190020    -0.518494     3.628488
H    -5.658976    -8.058831    -0.670317
O    -4.924199    -8.127868    -0.024853
H    -4.925319    -7.309181     0.495362
H    -5.189111    -0.124077    -4.695477
O    -5.804975    -0.835540    -4.940230
H    -6.646093    -0.394822    -5.128624
H     1.869849    -0.206218    -7.508974
O     1.666110     0.264568    -8.352983
H     2.241726    -0.140973    -9.006823
H     4.848898    -1.401185    -9.303497
O     3.922992    -1.173164    -9.584021
H     3.900923    -1.291839    -10.532908
H     7.570948    -2.565461     4.195470
O     7.716186    -2.602686     3.235777
H     7.222202    -3.393757     2.965720
H     6.726540    -5.891642     2.685063
O     6.789364    -5.215770     3.385402
H     7.666208    -5.299833     3.801425
H    -1.821674     8.947896     3.503338
O    -1.572232     9.253968     4.400742
H    -2.420158     9.385617     4.858139
H    -7.410210     1.550068    -5.215580
O    -7.984745     0.805909    -4.969760
H    -8.884571     1.208685    -4.895084
H     6.904391    -1.089133    -8.408678
O     6.322472    -1.810906    -8.670453
H     6.096603    -2.260037    -7.837536
H    -1.699363     6.232277    -7.014019
O    -2.096121     5.406938    -6.739053
H    -1.845531     5.277080    -5.775755
H     0.014974     3.316992     9.030442
O     0.213523     2.397844     9.286698
H    -0.584014     2.133552     9.794442
H     6.748140    -2.780945    -2.707391
O     6.218932    -3.525289    -2.364659
H     6.687536    -4.335994    -2.611271
H    -4.089200    -3.082374    -4.921676
O    -4.248123    -2.971563    -5.886259
H    -4.792914    -2.176908    -5.942586
H     1.993674     2.190661     8.469104
O     2.656301     2.302804     7.777777
H     3.078455     1.432587     7.662162
H    -6.912159    -5.207128    -1.360397
O    -7.835944    -5.463542    -1.596404
H    -7.965039    -5.072514    -2.485477
H    -3.822083     5.257631     5.710419
O    -3.790182     6.026277     5.119793
H    -2.856012     6.320286     5.211818
H    -7.895931     0.159589    -1.923098
O    -7.396770     0.856351    -2.373642
H    -7.656871     0.841616    -3.316021
H     5.834854     0.131366     0.409167
O     5.614151     0.853613     1.029569
H     6.126025     0.659523     1.841740
H    -6.204056     3.312219     7.417947
O    -6.074744     2.794626     8.246779
H    -6.674796     2.032758     8.158875
H     2.277190    -8.075318    -0.829437
O     2.952360    -8.063079    -1.527464
H     2.726373    -8.777969    -2.139180
H    -2.759895    -3.970823    -6.176623
O    -2.005623    -4.536665    -5.945943
H    -1.727346    -4.243786    -5.049740
H    -5.638703     3.761074     5.328810
O    -6.283470     4.159559     5.949281
H    -6.122020     5.103814     5.930908
H    -1.025220    -7.119619    -3.144396
O    -0.552202    -6.449418    -2.617451
H     0.354597    -6.379705    -2.999990
H     4.451243     2.021829     5.128094
O     3.509369     2.260741     5.009639
H     3.126663     2.277568     5.892217
H     4.117035     4.663600     6.298277
O     4.196885     5.392962     5.679131
H     3.627303     5.151622     4.909880
H     2.767566     3.620967     3.924082
O     2.589942     4.560940     3.757463
H     2.467621     4.658323     2.791285
H     9.387566     0.212549    -1.081876
O     8.582543     0.375760    -0.586823
H     8.408028    -0.442521    -0.092323
H    -2.083917     5.328716     10.661039
O    -2.804701     4.699813     10.895000
H    -3.021347     4.878263     11.810324
H     7.971686    -3.007082     0.323120
O     8.393245    -2.160078     0.576368
H     8.329275    -2.154015     1.538812
H     5.372995     3.669267     3.520423
O     6.030805     3.935905     4.184626
H     5.618499     4.653764     4.687009
H    -4.194536     5.027597     9.800304
O    -4.829441     5.178277     9.079919
H    -5.440580     4.428989     9.078418
H    -7.018384    -3.485181    -3.457998
O    -7.642917    -4.099831    -3.899628
H    -7.123494    -4.543156    -4.602628
H     0.044425     6.138055     10.775554
O    -0.820695     6.469588     10.530364
H    -0.707255     6.898629     9.662961
H     2.575572     1.491455    -4.101784
O     3.454570     1.844542    -3.865996
H     3.776624     1.330857    -3.095272
H    -6.961505    -0.215026     7.243992
O    -7.470336     0.562595     7.526333
H    -8.092984     0.746133     6.821547
H    -2.742829    -9.877452    -0.802813
O    -2.681231    -8.936063    -0.964688
H    -3.586207    -8.569688    -0.721847
H    -10.084510     3.062601    -4.869673
O    -10.204006     2.147121    -4.583553
H    -10.413148     2.238050    -3.632756
H    -2.059930    -3.021955     4.632380
O    -2.933069    -3.464435     4.705761
H    -2.929987    -4.080960     3.948852
H    -0.172290    -7.981677     2.504378
O     0.655079    -7.771072     2.950350
H     1.372153    -8.066737     2.361981
H     6.717944    -2.367717     6.390157
O     7.166663    -3.078035     5.926719
H     6.536668    -3.812964     5.890545
H    -5.260391    -2.000973     6.965097
O    -5.937842    -1.502574     6.483499
H    -5.926181    -1.877911     5.573401
H     0.814940     3.024685    -7.108677
O     1.732667     2.694471    -7.167067
H     1.717576     1.946087    -7.791796
H    -3.948238     8.760249     6.683797
O    -3.948315     8.757462     5.726428
H    -4.073592     7.829536     5.459778
H    -2.075082     10.308912    -2.732146
O    -2.977398     10.490028    -3.032304
H    -2.907286     11.122968    -3.746260
H     9.417877    -4.054436     4.037760
O     9.140299    -4.732125     4.661789
H     8.711829    -4.259292     5.386253
H    -0.748549    -6.004900    -5.822047
O    -0.044083    -6.571069    -5.490057
H     0.790724    -6.109198    -5.709783
H     1.818802     8.275619     0.662459
O     1.513548     8.596680    -0.214716
H     2.326972     8.634170    -0.747102
H     3.478018     2.923353    -6.662568
O     4.306770     2.633814    -6.255126
H     4.063875     2.361112    -5.345274
H     3.722974     7.124276    -1.235098
O     3.928112     8.059808    -1.450203
H     4.295072     8.002697    -2.344374
H     4.373186    -0.014478    -7.911279
O     4.752561     0.132763    -7.043032
H     4.570835     1.064806    -6.799748
H     6.024794     1.934077    -0.480869
O     6.588298     2.126544    -1.244197
H     7.413516     1.647540    -1.051455
H     6.680999    -8.431411    -1.603039
O     7.315182    -8.221410    -2.341370
H     7.681765    -9.055842    -2.628839
H    -5.315331    -5.797345    -5.378058
O    -5.934590    -5.125951    -5.690240
H    -5.384086    -4.357947    -5.929983
H     0.692502     7.180579     7.603108
O    -0.208129     7.208571     7.964809
H    -0.765606     7.221572     7.148590
H    -8.898933    -2.847358    -4.090582
O    -9.430419    -2.044543    -3.925146
H    -9.139974    -1.368618    -4.541491
H    -2.414692    -5.992855    -2.120888
O    -3.294530    -5.709309    -2.386733
H    -3.482985    -6.083298    -3.272319
H    -3.000008    -5.907653    -5.385625
O    -3.598854    -6.517710    -4.912316
H    -3.115584    -7.337119    -4.745237
H    -1.412101     3.718179    -6.972568
O    -0.870637     2.962903    -6.702688
H    -1.108919     2.177123    -7.250973
H    -0.226936     0.408045    -8.205210
O    -1.122586     0.642790    -7.920178
H    -1.295231     0.120424    -7.120855
H    -10.437764     4.041411    -2.699247
O    -10.501305     3.261568    -2.132282
H    -9.669038     3.238593    -1.626469
H     4.578510     4.083288     1.716476
O     4.371489     3.162467     1.996353
H     5.086907     2.586665     1.713768
H     6.471597     1.395671    -4.225334
O     6.170625     0.771973    -3.530111
H     6.202965     1.268324    -2.686840
H     9.628189    -2.223995    -0.938893
O     9.902616    -2.010544    -1.839590
H     9.101052    -1.672534    -2.281416
H     9.960018    -3.320925    -3.107639
O     9.692000    -3.973741    -3.781467
H     9.296148    -3.467027    -4.501182
H    -7.703939    -8.578961    -1.632102
O    -6.968987    -7.980857    -1.759316
H    -7.348015    -7.069844    -1.745615
H     4.144781     6.078045    -3.826033
O     4.805812     6.779719    -3.744016
H     5.642482     6.326366    -3.607399
H     0.086148    -8.176952    -5.196703
O     0.110432    -9.159762    -5.063871
H     0.259771    -9.524315    -5.936300
H    -2.338017    -8.678455    -2.691202
O    -2.107719    -8.416096    -3.602022
H    -1.460612    -9.033718    -3.961390
H     2.176867    -10.820480    -3.478781
O     2.130406    -9.865943    -3.455403
H     1.343720    -9.595948    -3.980071
H     6.819572     3.328040    -4.583234
O     6.876654     2.649278    -5.283665
H     6.081698     2.781267    -5.822477
H    -3.547809    -3.718045     7.743234
O    -3.663629    -2.930267     7.213529
H    -3.415655    -3.169175     6.294280
H    -0.655470    -3.370352    -6.708848
O    -0.025641    -2.638634    -6.718995
H    -0.506645    -1.863010    -6.376530
H     0.657529     0.469588     8.761111
O     0.664197    -0.246425     8.121870
H    -0.258271    -0.535463     8.036332
H    -5.852156     7.360009    -4.234719
O    -6.356269     6.740592    -4.794054
H    -6.640709     6.009532    -4.201532
H    -4.295051     9.097246    -3.251930
O    -4.830091     8.300930    -3.143839
H    -4.419847     7.822229    -2.405357
H    -9.729480     5.786005    -4.617171
O    -10.262858     4.981667    -4.451730
H    -11.143523     5.182641    -4.770190
H     2.775725     6.522524     6.137696
O     1.815868     6.618778     6.237842
H     1.472338     5.705141     6.137350
H     4.795449     8.548959     0.074590
O     5.115621     8.551278     0.994554
H     5.522497     7.686984     1.125734
H     4.132841    -7.429475    -4.334096
O     3.373762    -7.715594    -4.874350
H     3.094904    -8.556136    -4.496252
H     0.378301     8.663462     4.235216
O     1.056518     8.019634     4.006289
H     1.284718     7.527291     4.820799
H     5.221959     4.189891    -3.163644
O     6.183563     4.160263    -3.113307
H     6.394485     3.579873    -2.365200
H    -2.563399    -1.538571     7.591081
O    -2.052493    -0.745491     7.810571
H    -2.678395    -0.118575     8.183599
H    -9.046041     7.927183    -4.122709
O    -8.984430     7.341673    -4.878917
H    -8.027436     7.178040    -5.015915
H     3.534080    -8.978105     1.102139
O     2.857218    -8.346750     1.351475
H     3.331561    -7.540655     1.629903
H     3.580330     8.175287     1.823451
O     2.790535     7.611342     1.937893
H     2.345880     7.847468     2.764780
N    -9.290102    -0.998812     1.378694
H    -9.306674    -1.946270     1.177865
H    -9.880045    -0.619104     0.718825
