45
Coordinates from ORCA-job grain_mol_opt.QMRegion
  H   -0.14872656961143     -1.26638174339179      3.06867747215870
  O   0.33454300385897     -0.57301771398342      2.58911282986538
  H   -0.12688276046141      0.25085770753333      2.83041426274164
  H   -0.35063091819260     -3.56808859899546      3.68867038659899
  O   -0.72917544894549     -2.76649990500678      4.08732657297903
  H   -0.48276042469292     -2.82801992387463      5.03943714317560
  H   1.94744494717008     -1.78754704010279      2.96439189999069
  O   2.03910884775801     -2.74494104961658      2.83036845995227
  H   1.42989909994096     -2.92947260565500      2.08509393026815
  H   -2.52115271632776      0.27849175773626      3.30990112336489
  O   -2.78284584422265     -0.54403577033318      3.78563179788899
  H   -2.02857502698589     -0.60773763334437      4.40903749214737
  H   -0.95270467480578      0.62446739627752      6.01057089991021
  O   -0.67224852946331      0.07899264775982      5.24908499498670
  H   0.11628521934044     -0.43307477545248      5.55881344044407
  H   0.61846361655192     -5.10959116245288      1.90661205607547
  O   0.10373591345744     -5.17206593275795      2.73745317221296
  H   0.19954159878792     -6.10843952733992      2.99098424130801
  H   1.87088240397263     -3.61308205216674      4.43454251515511
  O   1.97733781265825     -4.09587220292354      5.28142200176078
  H   2.66132413197067     -3.56652305683944      5.75300953152168
  H   4.49401776902503     -2.35603509625042      5.62988412966718
  O   4.17645278959729     -2.86273120730586      6.41764132204333
  H   4.54259919880416     -3.75663056169647      6.26943108175355
  H   2.28879578286901     -5.70823784590840      4.86827995808111
  O   2.67960673808643     -6.57555536857847      4.59748978859492
  H   1.95337116295767     -7.15656756081368      4.34903650063169
  H   2.06180629817647     -0.70498802209899      5.25652540135240
  O   1.53256388170149     -1.14428923924099      5.95002600425027
  H   1.67508783575440     -0.64637133128672      6.76976660715699
  H   -2.33952978397312     -3.16370887077907      4.39789931062658
  O   -3.20043534436304     -3.61085168902136      4.59557650592833
  H   -3.24285685450847     -4.26512300780868      3.87569754875309
  H   -3.67334715606858     -3.55406733136064      7.78351654712967
  O   -3.75728471399647     -2.86927747865429      7.11906060580283
  H   -3.56224390374388     -3.30152113392556      6.25280618939065
  H   0.53435536002118      0.51585347540061      8.96532868676864
  O   0.48188798774020     -0.27285887018132      8.41257644315552
  H   -0.47866805434589     -0.40456446343988      8.28482233079597
  H   -2.71654677266482     -1.44795706070391      7.55142861314919
  O   -2.23497403860501     -0.64991002929544      7.85015874873049
  H   -2.90770258873587     -0.07283420191559      8.23035384945676
  O   -0.28775914972872     -3.37524197106349      6.70819167093431
  H   0.57578434017551     -3.71145919221873      6.39049613771961
  H   -0.03890297482698     -2.59908456377449      7.22184176529212
