603

H     0.191075     3.025919    -0.676852
O     0.714657     2.358117    -1.170011
H     1.653617     2.489388    -0.897835
H    -0.070530    -1.310075     3.156595
O     0.318605    -0.609512     2.610616
H    -0.159975     0.203268     2.844423
H    -2.406479     2.399646    -0.530672
O    -2.194859     1.930086     0.293662
H    -2.207197     0.982118     0.069304
H    -4.663186     0.532738     2.191834
O    -4.979971    -0.400915     2.204078
H    -4.472002    -0.878490     1.539977
H     0.064013    -0.313001     0.955934
O    -0.136097    -0.077182     0.029362
H     0.202199     0.819729    -0.092499
H    -0.142853    -3.580087     3.785227
O    -0.423412    -2.750378     4.205398
H     0.223290    -2.577644     4.906187
H    -4.892082     2.515377     1.338985
O    -4.251349     2.106918     1.952784
H    -3.408867     2.091269     1.439211
H    -3.262543     3.884520    -2.206779
O    -2.524334     3.288133    -1.975921
H    -2.165277     3.001556    -2.835776
H    -0.117802    -3.810115     0.510514
O     0.220647    -2.991416     0.927157
H    -0.567245    -2.506643     1.239998
H    -2.372630    -1.547390     2.478270
O    -2.184946    -2.013964     1.637315
H    -2.444122    -1.427396     0.907704
H     2.072492    -1.444854    -1.118711
O     2.305923    -1.696507    -0.201390
H     1.518313    -2.125698     0.183824
H    -1.393729     1.817852     1.916716
O    -1.485037     1.420233     2.792791
H    -1.470357     2.132717     3.457688
H     0.210479    -2.709133    -1.564292
O    -0.546853    -2.099449    -1.617936
H    -0.367909    -1.372040    -0.985015
H    -3.432085    -2.938500    -0.379954
O    -2.715196    -3.429441    -0.802420
H    -2.006087    -2.797731    -1.021491
H     2.773890     0.131765     2.933907
O     2.874423    -0.050134     3.895578
H     2.964528     0.843149     4.299714
H    -3.546964     6.366827    -0.538336
O    -3.310592     7.028944    -1.239171
H    -3.170385     7.875175    -0.770261
H     3.899777     0.588171     1.184391
O     2.949789     0.404206     1.301790
H     2.713688    -0.349026     0.723072
H    -5.787899     0.823093    -1.591205
O    -4.878439     1.153089    -1.468782
H    -4.989147     1.982131    -0.958142
H    -1.223717     5.390864     2.211727
O    -1.847118     4.642041     2.096661
H    -1.922334     4.223967     2.959691
H     3.485381     2.765854     0.422609
O     3.235801     2.721595    -0.516074
H     3.570284     1.879764    -0.866555
H     1.496782    -4.700615    -2.245617
O     1.559880    -3.922661    -1.673247
H     2.353218    -3.460045    -2.025438
H    -0.926988    -0.094120    -2.542393
O    -0.295396     0.559788    -2.868404
H    -0.034663     1.143330    -2.132465
H     1.707296    -4.687258    -0.174512
O     1.816370    -5.323462     0.568534
H     1.354770    -6.136024     0.273583
H    -1.224801    -3.275743    -2.871859
O    -1.051917    -3.959252    -3.532624
H    -0.922079    -4.805596    -3.063441
H    -2.784149     3.300739     4.710320
O    -1.803072     3.299662     4.674626
H    -1.508066     2.899422     5.510865
H     0.953438     5.034413     4.075087
O     0.006837     5.264200     4.128456
H    -0.462617     4.460049     4.387743
H    -1.722923    -4.660321    -0.362231
O    -0.956198    -5.199138    -0.078090
H    -1.301097    -5.886299     0.501408
H    -3.938005     5.816247    -2.593322
O    -4.287153     4.980962    -2.921911
H    -4.133651     4.946230    -3.890549
H    -2.422021    -3.698942     1.945941
O    -2.438170    -4.603111     2.321884
H    -1.497618    -4.838940     2.461609
H    -4.694670    -2.998628    -2.885669
O    -3.843057    -3.229203    -3.294144
H    -3.508445    -4.021536    -2.829069
H     0.339938     1.375473     4.617666
O     0.843249     2.136623     4.282358
H     0.892149     2.796098     4.988785
H    -4.648034    -5.186794    -1.557387
O    -5.350245    -4.834549    -0.983162
H    -5.134833    -5.187856    -0.098982
H     2.333096    -6.484833    -4.034473
O     1.996193    -6.156338    -3.180759
H     2.433059    -6.728568    -2.517696
H     0.466359    -3.386125    -4.000288
O     1.267605    -3.017581    -4.424626
H     0.946415    -2.647255    -5.273014
H     1.969864    -1.751833     2.984203
O     2.126485    -2.682598     2.767331
H     1.440268    -2.898050     2.101362
H    -3.017704    -1.823538    -3.200614
O    -2.598021    -0.935937    -3.136274
H    -3.254905    -0.291952    -3.456147
H    -3.203337     4.963677     1.084938
O    -3.987446     5.333814     0.631791
H    -4.401834     5.892443     1.338023
H     0.871967     2.252052     2.592192
O     0.970987     2.246519     1.620793
H     1.699644     1.625451     1.455973
H     0.173836     5.651810    -0.758299
O     0.693151     6.314301    -1.268501
H     0.834259     7.115046    -0.713754
H     0.327860     7.033397     2.589492
O    -0.034763     6.651120     1.773152
H     0.630761     5.982332     1.510983
H    -2.478327     0.206870     3.348232
O    -2.697966    -0.607541     3.853610
H    -1.936490    -0.644913     4.474486
H    -0.889594     0.550569     6.029964
O    -0.615957     0.030946     5.255471
H     0.099759    -0.570343     5.541460
H     0.721217    -4.996728     1.986414
O     0.179845    -5.107078     2.791404
H     0.327496    -6.027027     3.064244
H    -2.102499    -8.098056     0.460284
O    -1.780181    -7.608633     1.244582
H    -2.566432    -7.299206     1.701888
H    -0.401166     6.856296    -2.325801
O    -1.149350     7.273900    -2.824230
H    -1.938144     7.146476    -2.259287
H    -1.125283     4.302383     0.576487
O    -0.754006     4.363284    -0.320295
H    -1.461071     4.119785    -0.951448
H    -4.413269     2.734476     3.515438
O    -4.411446     2.905436     4.479797
H    -4.491646     2.022508     4.889735
H     2.035536    -3.580393     4.247550
O     1.973844    -4.052277     5.101104
H     2.480864    -3.514236     5.730671
H     4.693532    -3.189276     0.838189
O     4.531391    -3.114669    -0.128118
H     3.671387    -2.639269    -0.210560
H    -2.725376    -0.760613    -1.343664
O    -3.052825    -0.491419    -0.468965
H    -3.853966     0.033330    -0.674986
H    -1.623828    -0.772665    -4.624524
O    -1.119164    -0.556138    -5.429561
H    -0.410119     0.042298    -5.146241
H     1.791211    -1.718434    -3.374963
O     1.882366    -0.971133    -2.752277
H     1.103757    -0.395670    -2.882932
H     3.670985    -3.118024     2.551149
O     4.630396    -3.344832     2.476623
H     4.687656    -4.304724     2.604121
H     3.441628    -6.117360     3.126031
O     3.795401    -5.916465     2.225079
H     3.056393    -5.572606     1.683162
H    -3.356025     1.595150    -4.171184
O    -4.200191     1.123201    -3.978630
H    -4.415579     1.269562    -3.021848
H    -5.093254     4.131263     0.075760
O    -5.531785     3.264752    -0.028021
H    -6.462519     3.384208    -0.305148
H     6.731861    -1.173778    -1.368162
O     5.959953    -1.025598    -0.815463
H     5.543380    -1.894192    -0.616710
H     4.594287    -3.166067    -2.471416
O     3.725328    -2.997131    -2.886130
H     3.729178    -3.616307    -3.641968
H     4.445274    -2.285824     5.620449
O     4.104327    -2.751762     6.414221
H     4.441603    -3.655960     6.332768
H    -0.763908     6.334410     5.075778
O    -1.361278     6.909079     5.614324
H    -1.377298     7.785912     5.172347
H     4.693827    -0.132599    -1.469523
O     3.924708     0.407761    -1.731531
H     3.233253    -0.194667    -2.060224
H    -0.761640     4.514170    -4.035494
O    -1.546449     5.054610    -4.242067
H    -1.396220     5.922318    -3.821164
H     0.645612     3.198083    -2.657511
O     0.650323     3.573993    -3.566322
H     0.698838     2.810317    -4.151411
H    -5.372635    -5.209452     1.809554
O    -4.675355    -5.802236     1.452642
H    -3.835067    -5.385013     1.722339
H     7.875941    -1.681610    -4.040875
O     7.618677    -1.368366    -3.141056
H     7.129837    -0.525616    -3.297424
H     3.701333    -5.073650    -5.288670
O     4.463576    -4.698098    -4.809001
H     4.850631    -5.407878    -4.263389
H    -3.780052     0.007863     4.944150
O    -4.381346     0.471037     5.576868
H    -5.039177    -0.188479     5.870762
H     3.473728    -5.940905    -0.517023
O     4.345249    -5.691923    -0.836658
H     4.419761    -4.729362    -0.693566
H     4.991862    -0.333458    -4.164258
O     4.457391    -1.046255    -4.552730
H     4.133918    -1.629858    -3.833943
H    -1.185291     1.561391    -3.932387
O    -1.838420     2.179432    -4.317658
H    -1.482646     2.512095    -5.164465
H     4.892254    -6.318734    -2.314698
O     5.224298    -6.643656    -3.180653
H     6.043752    -7.122518    -2.994979
H     8.743839    -5.080713    -2.924541
O     8.054243    -5.499539    -2.364888
H     8.090916    -6.456867    -2.466259
H     2.325210     4.719731     0.448388
O     1.747137     4.700886     1.220443
H     1.391936     3.779928     1.299257
H    -4.406615    -2.646602     4.243515
O    -5.301697    -2.309400     4.041607
H    -5.167247    -1.527967     3.466070
H    -5.840402    -3.212776     1.332314
O    -6.302473    -3.769535     2.001268
H    -6.112284    -3.334036     2.851515
H     1.685817     3.471906     6.861218
O     1.060725     3.985333     6.327837
H     0.278485     4.137489     6.900700
H     5.007830    -2.161306     3.613711
O     5.027608    -1.442563     4.277312
H     4.214340    -0.888185     4.121455
H     2.406740    -5.573495     4.842507
O     2.788244    -6.456691     4.582456
H     2.044241    -7.040052     4.410171
H     2.253315    -4.521755    -6.787071
O     2.086194    -5.009857    -5.970844
H     1.821347    -4.318727    -5.315482
H     6.444561    -4.095349    -0.506787
O     7.199324    -4.496373    -0.044305
H     7.706584    -4.918474    -0.765502
H    -1.726892     4.486705     7.704106
O    -0.827682     4.586989     8.088003
H    -0.648774     5.546603     8.111482
H    -5.145162     5.671079    -5.587852
O    -4.535356     4.908572    -5.609187
H    -3.780230     5.125143    -6.176994
H     3.270442    -2.532238    -8.436681
O     3.185108    -3.064208    -7.634636
H     4.062428    -3.037774    -7.207307
H    -0.686453     8.818737    -2.280443
O    -0.564575     9.647676    -1.762203
H     0.199069     9.475597    -1.186639
H     2.072785    -0.909622     5.212820
O     1.501752    -1.436194     5.801346
H     1.596548    -1.090297     6.698248
H     5.197764    -2.022801    -5.696177
O     5.544695    -2.788754    -6.218140
H     5.273626    -3.578883    -5.699450
H     5.710323    -5.204705     4.684743
O     5.189142    -5.120221     5.512161
H     4.469081    -5.754084     5.428350
H    -3.969835     1.137489     7.015965
O    -3.777522     1.614254     7.859089
H    -4.653972     1.998296     8.121042
H    -1.877726     9.604977    -0.746784
O    -2.737016     9.476627    -0.270783
H    -3.350324     10.103464    -0.658070
H    -5.966898     4.670316    -2.929003
O    -6.877849     4.542201    -3.263745
H    -6.786187     3.847028    -3.947713
H     0.104556    -7.070663    -1.134384
O     0.570971    -7.504937    -0.387154
H    -0.106588    -7.700871     0.263042
H    -7.647661     3.767927    -1.957330
O    -7.918182     3.179769    -1.219341
H    -7.766291     2.272049    -1.556909
H     3.982589    -0.884017     6.984722
O     3.988831     0.080144     6.974691
H     4.799879     0.371632     6.541787
H     2.239929     5.794989    -1.184045
O     3.176248     5.504275    -1.070933
H     3.352892     4.964160    -1.864118
H     6.560983    -5.920582     0.669946
O     6.194826    -6.657410     1.204668
H     5.290086    -6.382151     1.432829
H    -3.870848     4.721643     7.786936
O    -3.304483     4.259512     7.127176
H    -3.495300     3.315758     7.239066
H     5.776562    -7.938714     0.138745
O     5.489212    -8.627054    -0.497705
H     4.658753    -8.303660    -0.890925
H    -0.553932     2.041568     7.696279
O    -1.188278     1.974665     6.962317
H    -2.055713     1.831556     7.360579
H    -6.382040    -0.140191     1.075146
O    -6.708132    -0.222486     0.163844
H    -7.624393    -0.500577     0.187891
H    -5.369312    -3.082060    -0.573417
O    -5.118909    -2.377904     0.051000
H    -5.690088    -1.606561    -0.137514
H     4.301875     5.582302     0.312684
O     4.636880     5.684269     1.217338
H     3.942060     6.193587     1.670224
H    -9.047075    -1.774369    -2.234320
O    -8.502278    -1.566424    -1.448080
H    -8.622316    -2.304692    -0.810065
H    -5.548529     3.449168    -5.517197
O    -6.061669     2.736064    -5.100792
H    -5.390630     2.154528    -4.688820
H     3.169520    -0.891393    -5.655881
O     2.313035    -1.013938    -6.120032
H     2.400065    -1.862976    -6.593166
H     8.103870    -1.342378    -6.037314
O     8.114719    -2.205936    -5.580073
H     7.259099    -2.608092    -5.829005
H     7.604437     0.996724    -6.319338
O     7.416707     0.147594    -6.731436
H     6.435431     0.095451    -6.766108
H    -7.855759    -3.712604     0.948337
O    -8.534600    -3.607371     0.263907
H    -8.435887    -4.368388    -0.335949
H    -2.428986     8.727806     1.293317
O    -2.275764     8.140010     2.046521
H    -1.504467     7.588814     1.823013
H    -4.456402     6.424133     3.502543
O    -4.629187     6.848192     2.645580
H    -3.867820     7.436427     2.504102
H     3.383419     3.445699    -3.581951
O     3.228038     4.414635    -3.489027
H     2.262895     4.477195    -3.595320
H    -6.121022    -1.626966    -3.427418
O    -6.202651    -2.205021    -2.642294
H    -6.985613    -1.898874    -2.132698
H     6.468947     1.062631     4.732123
O     6.074697     1.601006     5.435238
H     6.260095     2.519915     5.143199
H     1.344106     1.715034    -5.822528
O     1.151885     1.119232    -5.067538
H     1.517469     0.256973    -5.337108
H    -2.483356     2.961906     10.489384
O    -2.269689     2.054514     10.216445
H    -2.868126     1.853020     9.485211
H     7.629421    -0.483901     3.075443
O     6.878236     0.090097     3.244809
H     6.188057    -0.511448     3.626043
H    -5.646689    -8.072270    -0.681051
O    -4.910783    -8.138628    -0.035751
H    -4.915489    -7.320946     0.485532
H    -5.187661    -0.138791    -4.703251
O    -5.804368    -0.852205    -4.939898
H    -6.642146    -0.412312    -5.141628
H     1.874095    -0.205880    -7.514163
O     1.669852     0.264682    -8.358111
H     2.246435    -0.139661    -9.011854
H     4.855980    -1.395701    -9.306989
O     3.929770    -1.169421    -9.587856
H     3.908489    -1.287737    -10.536821
H     7.571955    -2.556108     4.193827
O     7.717308    -2.592709     3.234139
H     7.225362    -3.384956     2.963810
H     6.733879    -5.883471     2.682833
O     6.795009    -5.207501     3.383256
H     7.671797    -5.290084     3.799789
H    -1.839366     8.941980     3.496132
O    -1.590840     9.247639     4.393911
H    -2.439160     9.379145     4.850525
H    -7.405092     1.545705    -5.235600
O    -7.976814     0.798615    -4.989746
H    -8.883158     1.185496    -4.924770
H     6.910672    -1.080334    -8.410889
O     6.329834    -1.802889    -8.672890
H     6.104474    -2.252593    -7.840185
H    -1.707312     6.226388    -7.021569
O    -2.101630     5.399938    -6.746423
H    -1.852000     5.271491    -5.782982
H     0.003631     3.314046     9.024485
O     0.202936     2.394854     9.279896
H    -0.593898     2.129508     9.788061
H     6.753604    -2.772612    -2.709625
O     6.225337    -3.517793    -2.367187
H     6.695492    -4.327718    -2.613534
H    -4.082856    -3.091164    -4.930468
O    -4.239411    -2.980057    -5.895066
H    -4.787435    -2.187703    -5.951674
H     1.984603     2.190661     8.464366
O     2.646838     2.303853     7.772880
H     3.071005     1.434530     7.657768
H    -6.902830    -5.222677    -1.375807
O    -7.818942    -5.492846    -1.619215
H    -7.954272    -5.092836    -2.502906
H    -3.833753     5.248481     5.703089
O    -3.803973     6.016052     5.111033
H    -2.870628     6.313131     5.203413
H    -7.890469     0.059778    -1.949577
O    -7.410654     0.789886    -2.363629
H    -7.632402     0.773020    -3.318211
H     5.833593     0.138104     0.406475
O     5.610863     0.859629     1.027044
H     6.122999     0.666536     1.839300
H    -6.215203     3.300100     7.407366
O    -6.084683     2.782830     8.236200
H    -6.683453     2.020173     8.149914
H     2.290299    -8.074628    -0.834696
O     2.965765    -8.060879    -1.532373
H     2.741599    -8.776214    -2.144285
H    -2.750127    -3.977902    -6.185277
O    -1.995297    -4.542566    -5.953818
H    -1.717853    -4.249366    -5.057540
H    -5.647680     3.749803     5.319447
O    -6.297521     4.145222     5.936567
H    -6.135180     5.089504     5.923335
H    -1.012400    -7.124153    -3.151148
O    -0.540921    -6.452673    -2.624285
H     0.366074    -6.381919    -3.006316
H     4.443963     2.026169     5.124275
O     3.501540     2.263163     5.005483
H     3.118793     2.279561     5.888046
H     4.105074     4.667228     6.294696
O     4.183377     5.396926     5.675764
H     3.614925     5.154529     4.906091
H     2.758977     3.622426     3.919523
O     2.578861     4.561928     3.752976
H     2.457682     4.659407     2.786658
H     9.387080     0.225509    -1.082276
O     8.581310     0.387019    -0.587862
H     8.408187    -0.431626    -0.093483
H    -2.099904     5.321874     10.653872
O    -2.820161     4.691914     10.886952
H    -3.037540     4.869749     11.802252
H     7.975760    -2.996857     0.321639
O     8.395392    -2.149000     0.575233
H     8.331196    -2.143287     1.537653
H     5.364038     3.675274     3.517441
O     6.020762     3.942584     4.182401
H     5.607478     4.660313     4.684099
H    -4.208590     5.018831     9.791687
O    -4.843173     5.167271     9.070432
H    -5.453432     4.417370     9.070136
H    -7.013071    -3.501042    -3.466447
O    -7.634545    -4.112460    -3.913950
H    -7.113400    -4.555560    -4.615779
H     0.027054     6.135177     10.769813
O    -0.838776     6.464112     10.523623
H    -0.725433     6.894289     9.656798
H     2.574865     1.492682    -4.106574
O     3.452875     1.847538    -3.869864
H     3.775659     1.334210    -3.099258
H    -6.964920    -0.230805     7.235835
O    -7.474836     0.546865     7.515990
H    -8.099615     0.728150     6.812796
H    -2.726809    -9.884718    -0.811672
O    -2.666267    -8.943080    -0.972605
H    -3.572447    -8.578531    -0.730814
H    -10.029945     2.899513    -5.007891
O    -10.290117     2.031238    -4.657592
H    -10.277363     2.214626    -3.693572
H    -2.058151    -3.028672     4.624765
O    -2.932310    -3.470208     4.695922
H    -2.925686    -4.089230     3.940659
H    -0.161283    -7.985237     2.497725
O     0.665284    -7.772304     2.944059
H     1.383383    -8.067330     2.356546
H     6.717219    -2.359732     6.388215
O     7.167220    -3.069109     5.924617
H     6.538727    -3.805296     5.888201
H    -5.261122    -2.011824     6.958872
O    -5.939394    -1.515958     6.475352
H    -5.923742    -1.894040     5.566723
H     0.813448     3.023495    -7.114518
O     1.731558     2.694212    -7.171586
H     1.718342     1.946335    -7.796986
H    -3.967379     8.751168     6.675316
O    -3.966950     8.747733     5.717959
H    -4.090807     7.819670     5.451566
H    -2.090369     10.303253    -2.740026
O    -2.993365     10.482042    -3.039317
H    -2.925824     11.115258    -3.753291
H     9.421592    -4.042063     4.037110
O     9.144144    -4.720131     4.660779
H     8.715063    -4.247890     5.385248
H    -0.735774    -6.008856    -5.829489
O    -0.030727    -6.573470    -5.496158
H     0.803547    -6.110650    -5.715905
H     1.804562     8.275666     0.657776
O     1.498893     8.595688    -0.219598
H     2.312472     8.635194    -0.751653
H     3.476587     2.926585    -6.666674
O     4.305487     2.638347    -6.258633
H     4.062499     2.365203    -5.349003
H     3.711480     7.127452    -1.238746
O     3.914871     8.063371    -1.453500
H     4.282526     8.007209    -2.347463
H     4.377513    -0.009992    -7.914961
O     4.755549     0.137838    -7.046219
H     4.572477     1.069709    -6.803375
H     6.021285     1.941009    -0.483055
O     6.584713     2.134511    -1.246135
H     7.410733     1.656948    -1.053176
H     6.695258    -8.423321    -1.605592
O     7.329323    -8.211981    -2.343563
H     7.697829    -9.045620    -2.630901
H    -5.303160    -5.809257    -5.388129
O    -5.922506    -5.138301    -5.701007
H    -5.372863    -4.370005    -5.941102
H     0.675175     7.178721     7.597517
O    -0.225826     7.204384     7.958523
H    -0.782758     7.217345     7.141996
H    -8.903926    -2.861276    -4.077692
O    -9.423874    -2.051032    -3.914719
H    -9.136575    -1.391768    -4.550092
H    -2.405484    -5.999321    -2.129182
O    -3.284753    -5.715225    -2.396654
H    -3.472318    -6.091427    -3.281737
H    -2.987550    -5.915721    -5.394178
O    -3.585609    -6.526014    -4.920201
H    -3.101775    -7.345222    -4.753625
H    -1.414539     3.713391    -6.979473
O    -0.872797     2.958553    -6.708593
H    -1.108901     2.172817    -7.257837
H    -0.223288     0.405231    -8.211887
O    -1.119431     0.638415    -7.927082
H    -1.291687     0.115409    -7.128209
H    -10.096677     4.098406    -2.842426
O    -10.375118     3.392592    -2.227802
H    -9.610059     3.292072    -1.625569
H     4.569829     4.087845     1.713158
O     4.363979     3.166576     1.992690
H     5.080775     2.592099     1.710864
H     6.471072     1.403572    -4.227656
O     6.170498     0.779480    -3.532536
H     6.201871     1.275887    -2.689298
H     9.631742    -2.210926    -0.939291
O     9.906295    -1.996847    -1.839781
H     9.104448    -1.660263    -2.282135
H     9.966787    -3.307223    -3.107977
O     9.699882    -3.960501    -3.781772
H     9.303982    -3.454446    -4.501920
H    -7.687121    -8.596954    -1.640574
O    -6.951341    -8.000409    -1.770516
H    -7.331300    -7.088663    -1.760453
H     4.136497     6.082150    -3.829710
O     4.796182     6.784896    -3.746356
H     5.633683     6.332984    -3.610112
H     0.102089    -8.179517    -5.203352
O     0.127808    -9.162205    -5.070342
H     0.278021    -9.526765    -5.942626
H    -2.323005    -8.685333    -2.699202
O    -2.091955    -8.421711    -3.609482
H    -1.444455    -9.038827    -3.969080
H     2.196497    -10.819471    -3.484272
O     2.148067    -9.865029    -3.460637
H     1.361269    -9.596537    -3.985891
H     6.816318     3.336598    -4.585279
O     6.874654     2.657664    -5.285407
H     6.080068     2.788658    -5.824997
H    -3.547680    -3.726022     7.735331
O    -3.665223    -2.939354     7.204293
H    -3.414435    -3.178813     6.285986
H    -0.646445    -3.374205    -6.715922
O    -0.017851    -2.641435    -6.724989
H    -0.500581    -1.866523    -6.383547
H     0.651085     0.467392     8.755481
O     0.658899    -0.248085     8.115663
H    -0.262867    -0.538988     8.030058
H    -5.859381     7.349349    -4.244528
O    -6.357336     6.725996    -4.804709
H    -6.650293     5.999957    -4.212059
H    -4.308692     9.088113    -3.260529
O    -4.841676     8.290533    -3.151925
H    -4.430848     7.813209    -2.413181
H    -9.683863     5.766315    -4.780983
O    -10.044550     4.872865    -4.606626
H    -11.012359     4.955196    -4.630772
H     2.760388     6.524150     6.133470
O     1.800249     6.618558     6.232962
H     1.458543     5.704391     6.132015
H     4.780594     8.554140     0.071694
O     5.099512     8.556535     0.992107
H     5.508770     7.693357     1.123101
H     4.146993    -7.425429    -4.338244
O     3.388354    -7.712385    -4.878652
H     3.110945    -8.553720    -4.501242
H     0.360931     8.661359     4.229428
O     1.039472     8.017793     4.000759
H     1.268635     7.526493     4.815587
H     5.216251     4.195740    -3.166495
O     6.177852     4.167720    -3.115489
H     6.389367     3.587632    -2.367345
H    -2.566361    -1.546328     7.583722
O    -2.057401    -0.751675     7.801639
H    -2.683615    -0.126476     8.176891
H    -9.062176     7.904557    -4.134311
O    -8.987748     7.334640    -4.900922
H    -8.030982     7.171906    -5.029993
H     3.546949    -8.975410     1.097791
O     2.869281    -8.344778     1.346824
H     3.342635    -7.538185     1.625339
H     3.565067     8.177985     1.819399
O     2.776120     7.612686     1.933842
H     2.330766     7.848487     2.760410
N    -12.712990     3.896209    -4.120376
H    -12.360564     3.081219    -4.506676
H    -12.470081     3.799851    -3.189869
