24
Coordinates from ORCA-job grain_mol_opt.QMRegion
  H   4.19732124475680      5.53942694537295      0.29904326215175
  O   4.53043125291092      5.60271125720754      1.21370600834332
  H   3.87978209791251      6.20903611711094      1.63984820631560
  H   4.03443667596046      4.73617650423345      6.25142624369986
  O   4.17909708899597      5.42744981358956      5.59311437220276
  H   3.58079077023811      5.15889754350235      4.84843631162227
  H   5.51462319080724      3.62145552777574      3.51573613548296
  O   6.16804629834694      3.97776624758026      4.14412540469949
  H   5.63815716725395      4.57321433262496      4.70239691890533
  H   3.76498624236713      7.14192713226296     -1.21652735108309
  O   3.92513930743638      8.07529806486330     -1.46419961088976
  H   4.21556941621424      7.98571631837915     -2.38669053864444
  H   4.52566563256904      3.92469791040698      1.67344829276305
  O   4.35309968630014      3.01342973479786      1.99272559547948
  H   5.03107474850685      2.42935004401424      1.62660543364823
  H   4.73408371058292      8.92029544604840      0.11001227611091
  O   4.88167508403183      9.14637310249744      1.04606996984994
  H   5.65714759259066      8.60790101388403      1.29506630997979
  H   3.54258515451163      8.33950669933144      1.78104644647375
  O   2.82625251368391      7.66939296271076      1.92386061200194
  H   2.32186343595717      7.90507199780646      2.72309411879577
  O   6.81191066961081      7.14142062421905      1.59298546161603
  H   7.13769412846787      6.90631154912640      2.46725739136686
  H   6.10217912733117      6.48973101553947      1.41991175034119
