30
Coordinates from ORCA-job grain_mol_opt.QMRegion
  H   -1.74589735031510     -4.60875141746685     -0.39226634491153
  O   -0.98976452280674     -5.18692954586739     -0.15443351481815
  H   -1.34988624919180     -5.79418925391101      0.50478753609510
  H   -2.37734986128033     -3.60571650188584      2.01989256147944
  O   -2.43137268649289     -4.52319917255351      2.36664680301825
  H   -1.49110431751777     -4.78079012032765      2.51624757843997
  H   -4.63080660391829     -5.15379993436616     -1.57643023688877
  O   -5.34520419463925     -4.80224716705840     -1.01196830755848
  H   -5.12577176735788     -5.13255617837370     -0.12353477999037
  H   -2.01789193090319     -8.27855726854802      0.50481988665236
  O   -1.70425515977674     -7.77677691647543      1.28424663067974
  H   -2.44785395049294     -7.84995278337193      1.92160330436727
  H   -5.39384679028903     -5.02750540294315      1.86114984240472
  O   -4.74353310256002     -5.72418189692501      1.56561846031566
  H   -3.86721774906740     -5.31086433766034      1.73737062296566
  H   -5.83973643275533     -3.08511616280709      1.30558347476928
  O   -6.31505350308401     -3.64272591224233      1.97573620749907
  H   -6.13499022648195     -3.18983761544813      2.82440184045777
  H   -5.73065111215337     -8.08476980343919     -0.78279750431764
  O   -4.98536646705548     -8.14645458711846     -0.13664566804205
  H   -4.95638082657679     -7.27984731378751      0.29903823088047
  H   -2.80008184610815     -9.96776514966900     -0.99025475829615
  O   -2.68119377346473     -9.01555293186900     -1.03753282102810
  H   -3.58515583729232     -8.63739328705942     -0.84508666692365
  H   -0.10363955323172     -7.99735156010227      2.48717792679520
  O   0.71346080489727     -7.75346729009978      2.94806321130780
  H   1.42758644317249     -8.00467255011395      2.33284401287903
  O   -3.96275677352817     -8.06672133794082      2.83748472700364
  H   -4.38737390188476     -7.21409226678340      2.61266096225014
  H   -4.48184719251323     -8.70164251748396      2.33115140933095
