603

H     0.189548     3.024763    -0.676945
O     0.713354     2.358694    -1.171669
H     1.651941     2.487931    -0.897352
H    -0.079361    -1.312750     3.152554
O     0.312176    -0.611302     2.609188
H    -0.168359     0.200543     2.842150
H    -2.408584     2.398305    -0.535713
O    -2.197479     1.930259     0.289306
H    -2.212318     0.981527     0.066166
H    -4.660685     0.530364     2.192429
O    -4.964260    -0.405412     2.213284
H    -4.477130    -0.882212     1.533608
H     0.057811    -0.315224     0.954324
O    -0.138488    -0.078379     0.027135
H     0.198633     0.818994    -0.092458
H    -0.153799    -3.582730     3.781363
O    -0.432350    -2.752105     4.200928
H     0.212739    -2.581477     4.903500
H    -4.898234     2.515048     1.334610
O    -4.254260     2.112906     1.945702
H    -3.412507     2.093272     1.431110
H    -3.262940     3.885160    -2.211517
O    -2.523549     3.291731    -1.980062
H    -2.165084     3.001685    -2.839159
H    -0.125310    -3.811372     0.506852
O     0.214051    -2.993036     0.923650
H    -0.574338    -2.508210     1.236288
H    -2.382477    -1.549803     2.473120
O    -2.188094    -2.014426     1.632715
H    -2.452229    -1.430130     0.902882
H     2.067940    -1.446950    -1.118879
O     2.300801    -1.699004    -0.201614
H     1.512376    -2.127923     0.182814
H    -1.399150     1.816659     1.913632
O    -1.490529     1.419219     2.789586
H    -1.477420     2.131097     3.454912
H     0.205650    -2.709919    -1.567026
O    -0.549744    -2.098269    -1.623286
H    -0.372595    -1.372982    -0.987704
H    -3.441352    -2.939590    -0.388898
O    -2.720650    -3.428868    -0.807622
H    -2.013046    -2.795704    -1.025523
H     2.765787     0.127536     2.934911
O     2.866425    -0.054212     3.896543
H     2.955614     0.838901     4.300892
H    -3.546777     6.368045    -0.541312
O    -3.312542     7.030314    -1.242637
H    -3.169281     7.875936    -0.773244
H     3.894231     0.583861     1.186575
O     2.943917     0.401171     1.302535
H     2.707638    -0.352287     0.724003
H    -5.665504     0.845337    -1.535344
O    -4.764128     1.200302    -1.486854
H    -4.852996     2.076898    -1.060216
H    -1.227881     5.388942     2.211146
O    -1.853068     4.641972     2.094184
H    -1.928735     4.221632     2.956258
H     3.481786     2.762094     0.425444
O     3.233974     2.719136    -0.513761
H     3.567573     1.876809    -0.864081
H     1.491573    -4.701736    -2.247821
O     1.555249    -3.924093    -1.675161
H     2.348876    -3.461761    -2.026531
H    -0.928800    -0.094579    -2.545884
O    -0.297326     0.560215    -2.870845
H    -0.036861     1.142066    -2.133652
H     1.699900    -4.689432    -0.176518
O     1.809235    -5.326578     0.565607
H     1.345993    -6.138172     0.270417
H    -1.229608    -3.275537    -2.876816
O    -1.053163    -3.958278    -3.537496
H    -0.926765    -4.805027    -3.068165
H    -2.792678     3.297559     4.706240
O    -1.811261     3.299043     4.671809
H    -1.517233     2.896929     5.507536
H     0.946889     5.030787     4.076411
O     0.000372     5.261492     4.127966
H    -0.470103     4.457630     4.386827
H    -1.729778    -4.659669    -0.367695
O    -0.963558    -5.199711    -0.083626
H    -1.310334    -5.886034     0.495772
H    -3.935464     5.817639    -2.596511
O    -4.290236     4.985206    -2.926600
H    -4.130549     4.948167    -3.894059
H    -2.431582    -3.699093     1.939662
O    -2.447075    -4.603554     2.315074
H    -1.507129    -4.839137     2.456313
H    -4.698709    -2.993857    -2.894841
O    -3.845302    -3.225578    -3.301386
H    -3.513989    -4.018428    -2.835212
H     0.331560     1.372244     4.615787
O     0.835918     2.133658     4.281821
H     0.883576     2.792349     4.988921
H    -4.653702    -5.186214    -1.565508
O    -5.356484    -4.833590    -0.993025
H    -5.143669    -5.185082    -0.107707
H     2.329594    -6.485742    -4.036867
O     1.992620    -6.156969    -3.183399
H     2.427599    -6.730041    -2.519900
H     0.464461    -3.385959    -4.002730
O     1.266303    -3.017686    -4.426770
H     0.945382    -2.647157    -5.275107
H     1.960090    -1.755778     2.983560
O     2.117788    -2.686161     2.765919
H     1.431459    -2.901482     2.099768
H    -3.020357    -1.822601    -3.205982
O    -2.599496    -0.934742    -3.143501
H    -3.257320    -0.291450    -3.461368
H    -3.206405     4.962973     1.081446
O    -3.990192     5.335350     0.628574
H    -4.402511     5.894279     1.336505
H     0.865605     2.249043     2.591874
O     0.966932     2.245418     1.620596
H     1.694261     1.622560     1.456404
H     0.173426     5.650610    -0.758194
O     0.692501     6.313840    -1.267945
H     0.834542     7.113510    -0.711933
H     0.324594     7.030753     2.590666
O    -0.037571     6.649916     1.773419
H     0.627340     5.980061     1.511949
H    -2.487397     0.203591     3.344215
O    -2.704777    -0.610224     3.850402
H    -1.944050    -0.647275     4.471382
H    -0.899939     0.547272     6.027723
O    -0.623116     0.030249     5.252763
H     0.089649    -0.573848     5.539605
H     0.712119    -4.999293     1.982907
O     0.171528    -5.109146     2.788319
H     0.316345    -6.029778     3.060085
H    -2.112933    -8.097846     0.452708
O    -1.790421    -7.610027     1.237895
H    -2.576992    -7.298462     1.693458
H    -0.398981     6.856435    -2.325217
O    -1.146814     7.274856    -2.824374
H    -1.935845     7.147083    -2.260255
H    -1.127751     4.301009     0.575395
O    -0.755982     4.364280    -0.321007
H    -1.461460     4.119217    -0.953232
H    -4.420724     2.732883     3.511372
O    -4.418387     2.904060     4.475408
H    -4.501060     2.020439     4.884496
H     2.023995    -3.584622     4.245994
O     1.962497    -4.057058     5.099271
H     2.467621    -3.518638     5.729854
H     4.686040    -3.193552     0.839917
O     4.525491    -3.117954    -0.126623
H     3.665402    -2.642609    -0.209745
H    -2.727589    -0.761694    -1.348534
O    -3.050117    -0.491657    -0.472598
H    -3.852546     0.032824    -0.675937
H    -1.624687    -0.771706    -4.629218
O    -1.118647    -0.553836    -5.433399
H    -0.409240     0.042858    -5.147774
H     1.789027    -1.719441    -3.375482
O     1.880879    -0.971466    -2.753654
H     1.101677    -0.396748    -2.883625
H     3.661753    -3.122158     2.551624
O     4.621226    -3.349693     2.478155
H     4.677235    -4.309751     2.605230
H     3.430000    -6.121879     3.125123
O     3.785257    -5.920638     2.224770
H     3.046921    -5.576434     1.682026
H    -3.356732     1.597290    -4.174752
O    -4.203785     1.129876    -3.985534
H    -4.418412     1.271526    -3.027726
H    -4.987780     4.201139     0.103709
O    -5.424597     3.339090    -0.075864
H    -6.364096     3.467834    -0.290850
H     6.728010    -1.178619    -1.363347
O     5.955691    -1.029742    -0.811456
H     5.538050    -1.898108    -0.613265
H     4.590637    -3.168744    -2.469871
O     3.722638    -2.998613    -2.885994
H     3.726436    -3.618087    -3.641550
H     4.433694    -2.291705     5.622017
O     4.092684    -2.757212     6.415932
H     4.427977    -3.662089     6.333906
H    -0.770274     6.331066     5.075626
O    -1.367900     6.906376     5.613416
H    -1.382258     7.783272     5.172030
H     4.690610    -0.135846    -1.466567
O     3.922447     0.405378    -1.729642
H     3.230651    -0.196577    -2.058735
H    -0.760212     4.514025    -4.036734
O    -1.543752     5.056495    -4.244136
H    -1.391881     5.923478    -3.822457
H     0.645551     3.197789    -2.657742
O     0.650720     3.574398    -3.566543
H     0.700207     2.810580    -4.151450
H    -5.382562    -5.206362     1.796582
O    -4.684844    -5.803501     1.444081
H    -3.845682    -5.384915     1.713534
H     7.874805    -1.685557    -4.035205
O     7.617101    -1.372375    -3.135537
H     7.128560    -0.529507    -3.291949
H     3.699552    -5.074441    -5.288714
O     4.462023    -4.699770    -4.808570
H     4.847565    -5.409992    -4.262466
H    -3.791205     0.006201     4.937546
O    -4.389497     0.470548     5.572167
H    -5.051759    -0.187161     5.861341
H     3.466300    -5.943715    -0.517793
O     4.338460    -5.695250    -0.836338
H     4.413130    -4.732787    -0.692877
H     4.991468    -0.335953    -4.160973
O     4.457162    -1.048120    -4.550685
H     4.132321    -1.632055    -3.832577
H    -1.185653     1.561793    -3.934143
O    -1.836834     2.181906    -4.319984
H    -1.479563     2.512950    -5.166606
H     4.886341    -6.321795    -2.313989
O     5.219637    -6.646240    -3.179708
H     6.038335    -7.125968    -2.993099
H     8.739603    -5.085912    -2.919332
O     8.049310    -5.504419    -2.360436
H     8.085156    -6.461754    -2.462170
H     2.322901     4.716719     0.450966
O     1.743212     4.698752     1.221760
H     1.388419     3.777344     1.300914
H    -4.417029    -2.647241     4.236145
O    -5.312246    -2.310540     4.037758
H    -5.180593    -1.531061     3.458705
H    -5.852921    -3.208723     1.321876
O    -6.303725    -3.774501     1.990459
H    -6.125649    -3.332213     2.839275
H     1.675711     3.467034     6.862249
O     1.051935     3.982063     6.328799
H     0.268624     4.133027     6.900536
H     4.997990    -2.166965     3.616014
O     5.018059    -1.448146     4.279587
H     4.205006    -0.893446     4.123425
H     2.393884    -5.578280     4.840379
O     2.775221    -6.461684     4.580675
H     2.030829    -7.044187     4.406977
H     2.253324    -4.521379    -6.788470
O     2.085820    -5.009669    -5.972497
H     1.819907    -4.318835    -5.317113
H     6.438033    -4.100127    -0.503099
O     7.192497    -4.501390    -0.040334
H     7.699953    -4.923675    -0.761242
H    -1.737767     4.482657     7.702065
O    -0.838814     4.582988     8.086881
H    -0.659832     5.542362     8.110989
H    -5.136995     5.678026    -5.596517
O    -4.529812     4.914804    -5.615126
H    -3.771945     5.129114    -6.180750
H     3.273911    -2.531445    -8.436228
O     3.187290    -3.063923    -7.634727
H     4.063976    -3.038354    -7.206088
H    -0.683383     8.818857    -2.279502
O    -0.562401     9.647597    -1.760653
H     0.200861     9.474904    -1.184515
H     2.062333    -0.914038     5.212699
O     1.491575    -1.441220     5.800830
H     1.584325    -1.094788     6.697700
H     5.198234    -2.024706    -5.693317
O     5.545546    -2.790476    -6.215347
H     5.273179    -3.580773    -5.697401
H     5.697426    -5.211183     4.686617
O     5.175876    -5.126912     5.513765
H     4.455022    -5.759765     5.428757
H    -3.980975     1.135125     7.010317
O    -3.789190     1.613413     7.853262
H    -4.666476     1.996063     8.114353
H    -1.875589     9.604812    -0.747020
O    -2.736299     9.476520    -0.273162
H    -3.347800     10.105250    -0.660036
H    -5.965289     4.674236    -2.934584
O    -6.877096     4.546272    -3.269120
H    -6.782060     3.850062    -3.953662
H     0.096993    -7.071311    -1.138900
O     0.562414    -7.506471    -0.391495
H    -0.116312    -7.701802     0.257791
H    -7.660637     3.781091    -2.015746
O    -7.914164     3.145149    -1.309329
H    -7.748955     2.263569    -1.738011
H     3.969582    -0.890105     6.986484
O     3.977106     0.074090     6.977331
H     4.788622     0.364826     6.544869
H     2.239890     5.792820    -1.181686
O     3.175976     5.502306    -1.067882
H     3.353199     4.961668    -1.860635
H     6.552010    -5.925916     0.672639
O     6.185043    -6.662715     1.206744
H     5.280111    -6.387124     1.434078
H    -3.881751     4.719224     7.782390
O    -3.314483     4.257912     7.122976
H    -3.505918     3.313924     7.233789
H     5.767128    -7.943241     0.139565
O     5.480510    -8.630988    -0.497847
H     4.650144    -8.307394    -0.891267
H    -0.566196     2.036968     7.694561
O    -1.199570     1.972621     6.959716
H    -2.067674     1.828395     7.356348
H    -6.246924    -0.140058     1.131155
O    -6.624223    -0.136622     0.231975
H    -7.576814    -0.023115     0.353183
H    -5.380800    -3.074821    -0.581530
O    -5.123257    -2.371349     0.040130
H    -5.712369    -1.610842    -0.129209
H     4.300086     5.578543     0.317366
O     4.634433     5.680718     1.222208
H     3.939024     6.189308     1.674876
H    -9.049964    -1.887062    -2.284113
O    -8.525162    -1.605015    -1.507704
H    -8.586610    -2.315560    -0.824704
H    -5.542303     3.452995    -5.523858
O    -6.060212     2.746766    -5.102457
H    -5.392277     2.158697    -4.692299
H     3.170536    -0.892184    -5.654673
O     2.314801    -1.013164    -6.120665
H     2.401006    -1.862704    -6.593024
H     8.104973    -1.345693    -6.031294
O     8.115000    -2.209474    -5.574522
H     7.259262    -2.611019    -5.824221
H     7.607306     0.993912    -6.312566
O     7.419694     0.145256    -6.725672
H     6.438413     0.093377    -6.761109
H    -7.871977    -3.692949     0.929798
O    -8.546134    -3.592248     0.241171
H    -8.444677    -4.355010    -0.354045
H    -2.428949     8.727543     1.292056
O    -2.278511     8.138666     2.044809
H    -1.506495     7.587388     1.823267
H    -4.461444     6.423552     3.498071
O    -4.632846     6.848329     2.640835
H    -3.870635     7.436111     2.501424
H     3.384694     3.444038    -3.578887
O     3.229478     4.413147    -3.486021
H     2.264431     4.475754    -3.593124
H    -6.123851    -1.624887    -3.435154
O    -6.203178    -2.208053    -2.654991
H    -6.985000    -1.900925    -2.137927
H     6.459888     1.055791     4.737332
O     6.065617     1.594402     5.440273
H     6.251708     2.513202     5.148546
H     1.347472     1.715453    -5.822470
O     1.154061     1.119998    -5.067771
H     1.518684     0.257163    -5.337005
H    -2.498292     2.957511     10.485478
O    -2.284173     2.050294     10.212613
H    -2.881842     1.848835     9.480582
H     7.621138    -0.490906     3.081450
O     6.870309     0.083742     3.250205
H     6.179110    -0.517569     3.630329
H    -5.655455    -8.069196    -0.692971
O    -4.919833    -8.136695    -0.047082
H    -4.924948    -7.318995     0.474736
H    -5.186933    -0.134766    -4.711376
O    -5.800483    -0.848014    -4.955385
H    -6.640063    -0.410204    -5.153180
H     1.877565    -0.204859    -7.514233
O     1.674804     0.266500    -8.358261
H     2.251732    -0.138326    -9.011405
H     4.860938    -1.395735    -9.304235
O     3.935426    -1.167959    -9.586303
H     3.914851    -1.287260    -10.535147
H     7.561276    -2.563309     4.198863
O     7.708131    -2.599704     3.239384
H     7.215636    -3.391309     2.968086
H     6.722857    -5.889562     2.685556
O     6.784069    -5.213813     3.386209
H     7.660213    -5.297490     3.803694
H    -1.843036     8.940274     3.495812
O    -1.595467     9.246451     4.393521
H    -2.444129     9.376797     4.849917
H    -7.399891     1.546814    -5.248675
O    -7.974236     0.801349    -5.006267
H    -8.876642     1.196591    -4.939610
H     6.914629    -1.082107    -8.405708
O     6.333745    -1.804215    -8.668828
H     6.107012    -2.254135    -7.836547
H    -1.699308     6.228860    -7.022896
O    -2.097863     5.404506    -6.747528
H    -1.846399     5.273609    -5.784573
H    -0.009172     3.308985     9.023719
O     0.189949     2.389967     9.279720
H    -0.608048     2.124414     9.786067
H     6.750544    -2.776649    -2.705552
O     6.221533    -3.521575    -2.363935
H     6.691215    -4.331802    -2.610112
H    -4.084034    -3.088954    -4.937368
O    -4.237814    -2.976557    -5.902541
H    -4.787315    -2.185002    -5.958310
H     1.971748     2.184838     8.465099
O     2.635196     2.298245     7.774763
H     3.058720     1.428598     7.659519
H    -6.909720    -5.218975    -1.386926
O    -7.822061    -5.495557    -1.636418
H    -7.957816    -5.089489    -2.516924
H    -3.842557     5.247279     5.697729
O    -3.810894     6.015771     5.106631
H    -2.877163     6.310997     5.200882
H    -7.857933     0.011586    -2.019965
O    -7.376533     0.747978    -2.440214
H    -7.633016     0.735167    -3.389447
H     5.828607     0.133457     0.410792
O     5.606183     0.855258     1.031186
H     6.116916     0.661109     1.844092
H    -6.226782     3.297917     7.399786
O    -6.097611     2.780963     8.228818
H    -6.696004     2.017792     8.140297
H     2.281474    -8.076464    -0.837776
O     2.958331    -8.063442    -1.534220
H     2.734054    -8.778134    -2.146837
H    -2.750472    -3.975332    -6.191107
O    -1.994610    -4.539140    -5.960418
H    -1.719272    -4.247550    -5.062906
H    -5.656773     3.748207     5.313139
O    -6.305447     4.146514     5.929662
H    -6.141009     5.090343     5.916489
H    -1.017795    -7.123753    -3.156605
O    -0.545667    -6.452847    -2.629536
H     0.361242    -6.382225    -3.011147
H     4.435036     2.020390     5.127984
O     3.493190     2.258980     5.008206
H     3.109058     2.274063     5.890202
H     4.096336     4.661180     6.298890
O     4.175647     5.391205     5.680445
H     3.607976     5.149200     4.910061
H     2.751755     3.618308     3.922233
O     2.572831     4.558069     3.755465
H     2.452654     4.655507     2.789098
H     9.383782     0.219095    -1.074266
O     8.577850     0.381407    -0.580377
H     8.403311    -0.437378    -0.086668
H    -2.113204     5.317679     10.651590
O    -2.834079     4.688236     10.883692
H    -3.052007     4.865258     11.799001
H     7.969109    -3.002560     0.326838
O     8.389249    -2.155145     0.581259
H     8.323694    -2.149804     1.543601
H     5.357715     3.669419     3.522838
O     6.014184     3.936879     4.188004
H     5.600278     4.653973     4.690078
H    -4.221980     5.014987     9.786922
O    -4.855786     5.164874     9.065349
H    -5.466020     4.414814     9.063003
H    -7.017001    -3.496233    -3.475611
O    -7.637443    -4.106508    -3.927602
H    -7.114922    -4.549565    -4.627704
H     0.014148     6.129037     10.770246
O    -0.850790     6.459827     10.523398
H    -0.736000     6.889570     9.656577
H     2.575850     1.491784    -4.105143
O     3.453715     1.846414    -3.867343
H     3.775344     1.332167    -3.096727
H    -6.978093    -0.230203     7.224893
O    -7.487808     0.547691     7.505410
H    -8.111324     0.728426     6.800741
H    -2.737815    -9.883399    -0.820532
O    -2.675971    -8.941919    -0.981766
H    -3.582421    -8.576202    -0.739812
H    -10.014034     3.050020    -4.956467
O    -10.238909     2.135218    -4.729196
H    -10.421136     2.224545    -3.773515
H    -2.068675    -3.031136     4.619078
O    -2.941388    -3.474344     4.691482
H    -2.937713    -4.090208     3.933699
H    -0.173918    -7.986774     2.492483
O     0.652774    -7.775639     2.939590
H     1.370755    -8.070558     2.352035
H     6.704101    -2.367612     6.392350
O     7.154569    -3.076990     5.929177
H     6.525575    -3.812723     5.891430
H    -5.274849    -2.012790     6.949127
O    -5.951302    -1.513982     6.466548
H    -5.936841    -1.890789     5.556534
H     0.818449     3.024410    -7.114540
O     1.736670     2.695686    -7.171545
H     1.723736     1.947096    -7.796204
H    -3.973371     8.749933     6.672151
O    -3.973646     8.746377     5.714767
H    -4.096364     7.817856     5.449023
H    -2.087664     10.303570    -2.739606
O    -2.989565     10.482788    -3.042265
H    -2.918569     11.117681    -3.754405
H     9.410116    -4.050013     4.043569
O     9.132403    -4.728254     4.666927
H     8.701999    -4.256283     5.390797
H    -0.737689    -6.007188    -5.834109
O    -0.032984    -6.572738    -5.501530
H     0.801596    -6.109874    -5.719569
H     1.803594     8.273347     0.660685
O     1.499064     8.594220    -0.216941
H     2.313438     8.632914    -0.747902
H     3.480870     2.926002    -6.663681
O     4.309281     2.637688    -6.254750
H     4.065128     2.363761    -5.345590
H     3.712177     7.124820    -1.233959
O     3.915936     8.060795    -1.448469
H     4.285097     8.004366    -2.341808
H     4.381399    -0.010477    -7.912143
O     4.759170     0.137142    -7.043256
H     4.575942     1.068810    -6.800017
H     6.018365     1.936486    -0.478023
O     6.582895     2.130400    -1.240238
H     7.408252     1.651939    -1.046582
H     6.687521    -8.427438    -1.603863
O     7.323003    -8.216400    -2.340842
H     7.690553    -9.050402    -2.628337
H    -5.304899    -5.805105    -5.397955
O    -5.922582    -5.134632    -5.714913
H    -5.372326    -4.365578    -5.950756
H     0.666704     7.173941     7.598949
O    -0.234615     7.201094     7.959035
H    -0.790776     7.213586     7.142097
H    -8.903283    -2.856251    -4.094942
O    -9.428688    -2.048196    -3.939203
H    -9.133370    -1.386691    -4.568441
H    -2.410310    -5.999294    -2.135788
O    -3.288262    -5.713358    -2.405107
H    -3.476472    -6.089819    -3.289599
H    -2.988947    -5.913316    -5.402145
O    -3.587907    -6.523888    -4.930078
H    -3.104550    -7.342959    -4.761764
H    -1.410431     3.714735    -6.982564
O    -0.868348     2.960798    -6.710874
H    -1.103343     2.174216    -7.259907
H    -0.218710     0.407409    -8.213764
O    -1.114726     0.642003    -7.929650
H    -1.288667     0.118039    -7.131563
H    -10.520547     4.085358    -2.850740
O    -10.601161     3.359324    -2.210824
H    -9.718951     3.334757    -1.792860
H     4.566345     4.083224     1.717617
O     4.359217     3.162285     1.996695
H     5.075599     2.586962     1.715451
H     6.472061     1.400561    -4.222028
O     6.170330     0.776420    -3.527600
H     6.200969     1.272254    -2.683996
H     9.626901    -2.217250    -0.931904
O     9.902721    -2.002652    -1.831907
H     9.101433    -1.665727    -2.275043
H     9.963655    -3.312666    -3.100590
O     9.697525    -3.965458    -3.775156
H     9.302259    -3.458936    -4.495317
H    -7.695377    -8.592241    -1.650984
O    -6.957696    -7.998829    -1.784538
H    -7.335474    -7.085079    -1.774773
H     4.139543     6.080009    -3.824694
O     4.799375     6.782598    -3.740842
H     5.636446     6.330215    -3.603369
H     0.098249    -8.178809    -5.208186
O     0.124319    -9.161591    -5.076003
H     0.274616    -9.525389    -5.948573
H    -2.330853    -8.683485    -2.706686
O    -2.096995    -8.420417    -3.616600
H    -1.449862    -9.038692    -3.974553
H     2.188874    -10.820596    -3.487681
O     2.142259    -9.866039    -3.464944
H     1.355802    -9.596673    -3.990390
H     6.818522     3.333607    -4.578502
O     6.877535     2.655290    -5.279147
H     6.083324     2.786456    -5.819238
H    -3.563699    -3.729775     7.726687
O    -3.676816    -2.940960     7.197953
H    -3.428457    -3.179810     6.278717
H    -0.645624    -3.372369    -6.719286
O    -0.016883    -2.639522    -6.728672
H    -0.499748    -1.865010    -6.386510
H     0.636669     0.462129     8.754514
O     0.645266    -0.252853     8.114197
H    -0.276531    -0.543676     8.027329
H    -5.857311     7.352525    -4.249124
O    -6.362338     6.732165    -4.807067
H    -6.645847     6.002666    -4.214368
H    -4.305826     9.089092    -3.265088
O    -4.840535     8.292568    -3.155969
H    -4.428392     7.814709    -2.417945
H    -9.738618     5.769681    -4.627657
O    -10.274821     4.967590    -4.458207
H    -11.147184     5.163935    -4.801421
H     2.752834     6.518776     6.137014
O     1.792608     6.614027     6.234998
H     1.450563     5.699803     6.134240
H     4.780800     8.550115     0.078096
O     5.098765     8.552261     0.998814
H     5.507011     7.688634     1.130246
H     4.143011    -7.427276    -4.338527
O     3.385420    -7.713793    -4.880602
H     3.106275    -8.554686    -4.503441
H     0.356898     8.658129     4.231810
O     1.035274     8.014450     4.003156
H     1.263470     7.522296     4.817887
H     5.217535     4.192569    -3.161254
O     6.179059     4.164657    -3.108939
H     6.389479     3.583697    -2.361101
H    -2.579152    -1.549313     7.577773
O    -2.070231    -0.754972     7.797840
H    -2.697830    -0.129983     8.171107
H    -9.053432     7.916570    -4.145138
O    -8.992482     7.323352    -4.895349
H    -8.035092     7.165030    -5.035591
H     3.536582    -8.978949     1.095625
O     2.858790    -8.348371     1.344347
H     3.331752    -7.541925     1.623832
H     3.563048     8.174115     1.824360
O     2.773018     7.610010     1.937083
H     2.327566     7.844800     2.763893
N    -9.224930     0.922792     0.501872
H    -9.102727     1.809689     0.139086
H    -9.842166     0.494004    -0.098831
