21
Coordinates from ORCA-job grain_mol_opt.QMRegion
  H   -3.57116991608173      6.34463894612998     -0.50202758434311
  O   -3.36135366686894      7.01374366394020     -1.21101915877368
  H   -3.12816845054433      7.85095467931236     -0.74925932363082
  H   -1.88316555950290      9.65597305438651     -0.76840010042772
  O   -2.67882995975292      9.43328422133602     -0.22683401529538
  H   -3.41903002774407      9.98438583374244     -0.55260237606204
  H   -2.33552820722269      8.71219341896944      1.37048491720512
  O   -2.24142937509308      8.08844230904021      2.10858789987022
  H   -1.46271801999087      7.53760068429813      1.90324256634212
  H   -1.98045599687319     10.20145750483666     -3.11094869112402
  O   -2.84903623590686     10.28053907713538     -3.52865323171139
  H   -3.29102191357619     10.97230271375754     -3.02207527926035
  H   -5.91740934484372      7.30534036768431     -4.19221655562027
  O   -6.39010597994484      6.69323612777167     -4.78800406661497
  H   -6.67644063534884      5.94470352592752     -4.20863852819441
  H   -4.13684639734349      8.86205354206991     -3.36988213213538
  O   -4.91161953195091      8.38362976317508     -3.01158219141429
  H   -4.51182870059097      7.79979228246891     -2.32684650745140
  O   -4.96572754113931     10.58580732465613     -1.35555550254221
  H   -5.70495549047807     10.72392796003454     -0.75592907384484
  H   -5.19999868017465      9.80098571127624     -1.90305651292494
