603

H     0.199775     3.049951    -0.680785
O     0.722550     2.377319    -1.169576
H     1.661320     2.508304    -0.897909
H    -0.080842    -1.286623     3.152828
O     0.312253    -0.587086     2.608440
H    -0.164357     0.227186     2.840698
H    -2.398364     2.434170    -0.538587
O    -2.194083     1.963430     0.287235
H    -2.205463     1.015589     0.061730
H    -4.662826     0.569512     2.184700
O    -4.984435    -0.362326     2.194908
H    -4.479568    -0.840714     1.529006
H     0.061080    -0.288187     0.952226
O    -0.138673    -0.051829     0.025945
H     0.204116     0.843410    -0.097417
H    -0.161929    -3.556127     3.780236
O    -0.440138    -2.725893     4.200994
H     0.206582    -2.555939     4.902380
H    -4.893644     2.532313     1.337745
O    -4.242405     2.141902     1.952033
H    -3.404036     2.123673     1.430812
H    -3.237460     3.955827    -2.210009
O    -2.526947     3.324616    -1.982289
H    -2.162656     3.041459    -2.840641
H    -0.132402    -3.785224     0.505702
O     0.208313    -2.968218     0.923840
H    -0.578536    -2.480427     1.234608
H    -2.383152    -1.515680     2.470395
O    -2.195067    -1.982502     1.629991
H    -2.451442    -1.395254     0.899716
H     2.068342    -1.426786    -1.119501
O     2.299462    -1.679756    -0.201814
H     1.509672    -2.106323     0.181815
H    -1.389741     1.845784     1.910947
O    -1.486024     1.448510     2.786760
H    -1.467867     2.160044     3.452005
H     0.202846    -2.684832    -1.567997
O    -0.552807    -2.073247    -1.622118
H    -0.372394    -1.345683    -0.989769
H    -3.442920    -2.902158    -0.389904
O    -2.726413    -3.395912    -0.809835
H    -2.015365    -2.766393    -1.029024
H     2.769153     0.145549     2.934724
O     2.867296    -0.036528     3.896791
H     2.960217     0.856459     4.300726
H    -3.131965     6.231773    -0.290818
O    -3.043271     6.832678    -1.066212
H    -2.985398     7.741193    -0.722448
H     3.898715     0.599248     1.187001
O     2.948241     0.417553     1.303933
H     2.710284    -0.333886     0.723592
H    -5.783620     0.863113    -1.608712
O    -4.873123     1.189277    -1.480647
H    -4.985878     2.013572    -0.964172
H    -1.210257     5.416792     2.204006
O    -1.837083     4.667080     2.105641
H    -1.893543     4.249727     2.970424
H     3.492978     2.778412     0.425704
O     3.245175     2.735078    -0.513234
H     3.577027     1.892314    -0.863715
H     1.482953    -4.680314    -2.248241
O     1.548344    -3.903248    -1.674971
H     2.343341    -3.442790    -2.026252
H    -0.925275    -0.064781    -2.547485
O    -0.288689     0.585020    -2.871873
H    -0.028139     1.169041    -2.136128
H     1.690783    -4.668456    -0.176671
O     1.796585    -5.305322     0.566395
H     1.332498    -6.116079     0.270409
H    -1.232954    -3.245701    -2.878618
O    -1.060873    -3.930067    -3.538761
H    -0.935139    -4.776686    -3.069168
H    -2.782081     3.330915     4.705592
O    -1.801139     3.329016     4.671008
H    -1.507162     2.926151     5.506410
H     0.964648     5.055756     4.074053
O     0.018426     5.286895     4.132877
H    -0.450446     4.482000     4.389776
H    -1.738908    -4.629791    -0.369552
O    -0.974528    -5.171425    -0.084154
H    -1.323019    -5.857681     0.494213
H    -3.919236     5.910174    -2.553732
O    -4.259109     5.064156    -2.890704
H    -4.063496     5.028805    -3.848353
H    -2.438467    -3.666993     1.937584
O    -2.458093    -4.570797     2.314317
H    -1.518536    -4.810063     2.454572
H    -4.701928    -2.956679    -2.897782
O    -3.850090    -3.190827    -3.304180
H    -3.519590    -3.984266    -2.838377
H     0.336984     1.396683     4.615990
O     0.841090     2.157606     4.281360
H     0.894260     2.815251     4.988989
H    -4.664318    -5.146030    -1.569322
O    -5.365857    -4.791840    -0.995598
H    -5.152936    -5.146320    -0.111446
H     2.315904    -6.466503    -4.036747
O     1.979113    -6.137486    -3.183247
H     2.413191    -6.711344    -2.519854
H     0.459604    -3.361834    -4.004122
O     1.263028    -2.996548    -4.427201
H     0.944245    -2.624126    -5.275626
H     1.958450    -1.734919     2.982851
O     2.112183    -2.666309     2.766616
H     1.426449    -2.879243     2.099225
H    -3.020584    -1.787125    -3.209194
O    -2.597389    -0.901441    -3.143293
H    -3.251070    -0.254457    -3.464446
H    -3.217515     4.858673     1.320987
O    -4.001613     5.250489     0.874620
H    -4.340746     5.847266     1.593126
H     0.875652     2.272410     2.590999
O     0.974608     2.266471     1.619898
H     1.701579     1.643622     1.454820
H     0.186683     5.678539    -0.764768
O     0.726334     6.331386    -1.265461
H     0.853562     7.136876    -0.715773
H     0.346866     7.053660     2.591364
O    -0.022422     6.667692     1.779929
H     0.645265     6.004751     1.507993
H    -2.483789     0.238312     3.341198
O    -2.707382    -0.574464     3.847357
H    -1.946325    -0.615459     4.468323
H    -0.897497     0.575251     6.026362
O    -0.624376     0.055991     5.251684
H     0.089015    -0.548176     5.537735
H     0.700120    -4.975095     1.982558
O     0.157734    -5.083954     2.787091
H     0.301652    -6.004615     3.059440
H    -2.131445    -8.066547     0.451250
O    -1.808720    -7.578884     1.236508
H    -2.594761    -7.266445     1.692160
H    -0.343392     6.885781    -2.361321
O    -1.083188     7.310737    -2.862234
H    -1.864474     7.164183    -2.290208
H    -1.118354     4.332048     0.570221
O    -0.738482     4.382514    -0.322482
H    -1.446939     4.159861    -0.959546
H    -4.408504     2.769050     3.507562
O    -4.411995     2.943971     4.471637
H    -4.492936     2.061132     4.882183
H     2.015905    -3.564157     4.246089
O     1.951414    -4.035784     5.099646
H     2.459830    -3.499775     5.729779
H     4.680326    -3.180742     0.840734
O     4.519808    -3.105577    -0.125718
H     3.661584    -2.627031    -0.209441
H    -2.726541    -0.726654    -1.350903
O    -3.054343    -0.456742    -0.476507
H    -3.853896     0.070036    -0.684822
H    -1.620885    -0.740713    -4.630562
O    -1.113280    -0.527249    -5.434584
H    -0.403922     0.070416    -5.150365
H     1.789205    -1.698802    -3.376216
O     1.882140    -0.952670    -2.752502
H     1.105791    -0.373944    -2.884179
H     3.655529    -3.106558     2.552254
O     4.614343    -3.336593     2.479522
H     4.667979    -4.296789     2.606295
H     3.415215    -6.105236     3.125875
O     3.771055    -5.905273     2.225600
H     3.034003    -5.558872     1.682521
H    -3.345000     1.632546    -4.180316
O    -4.190135     1.161546    -3.989119
H    -4.406791     1.309614    -3.033188
H    -5.206236     4.105058     0.170987
O    -5.627542     3.241704     0.016558
H    -6.561665     3.332358    -0.273769
H     6.728751    -1.171604    -1.362194
O     5.957210    -1.021250    -0.809595
H     5.536957    -1.888389    -0.612447
H     4.586153    -3.156423    -2.468919
O     3.718307    -2.984574    -2.884640
H     3.721010    -3.603153    -3.640922
H     4.427954    -2.277910     5.623007
O     4.084434    -2.742842     6.416345
H     4.418744    -3.648160     6.334974
H    -0.753440     6.358284     5.074624
O    -1.353634     6.935440     5.608429
H    -1.359591     7.812979     5.167937
H     4.694370    -0.124121    -1.465872
O     3.927513     0.418983    -1.728389
H     3.234370    -0.180523    -2.058974
H    -0.742510     4.544636    -4.039023
O    -1.526773     5.083781    -4.248224
H    -1.376946     5.952491    -3.826384
H     0.659910     3.221171    -2.658818
O     0.669757     3.596472    -3.567344
H     0.713465     2.832919    -4.152771
H    -5.393642    -5.167615     1.796422
O    -4.697665    -5.763233     1.441457
H    -3.856591    -5.348169     1.711813
H     7.875059    -1.682306    -4.033062
O     7.617765    -1.368573    -3.133437
H     7.131846    -0.524066    -3.290243
H     3.690656    -5.059615    -5.288216
O     4.453761    -4.687230    -4.807350
H     4.837233    -5.398557    -4.261337
H    -3.787968     0.044613     4.935322
O    -4.388510     0.509804     5.567774
H    -5.048986    -0.147975     5.859907
H     3.453066    -5.927764    -0.517258
O     4.326232    -5.681992    -0.834919
H     4.403665    -4.719619    -0.691926
H     4.995580    -0.324182    -4.160415
O     4.460103    -1.035752    -4.549785
H     4.132852    -1.617767    -3.831508
H    -1.174290     1.592322    -3.936839
O    -1.825801     2.211159    -4.322775
H    -1.468090     2.545059    -5.168074
H     4.873068    -6.309993    -2.312550
O     5.205297    -6.636007    -3.178043
H     6.022913    -7.117522    -2.991251
H     8.729846    -5.084641    -2.916623
O     8.038213    -5.501502    -2.358004
H     8.071715    -6.458864    -2.459900
H     2.337544     4.738889     0.449567
O     1.761197     4.719565     1.223083
H     1.401089     3.800478     1.297629
H    -4.422781    -2.608890     4.233179
O    -5.316385    -2.267897     4.031322
H    -5.178464    -1.487840     3.454511
H    -5.854454    -3.169287     1.319159
O    -6.318002    -3.725244     1.987974
H    -6.128546    -3.289910     2.838298
H     1.686707     3.487877     6.862163
O     1.063689     4.003843     6.328748
H     0.280975     4.157427     6.900038
H     4.993880    -2.154854     3.617315
O     5.015002    -1.436518     4.281380
H     4.204001    -0.879194     4.124118
H     2.379485    -5.558532     4.841082
O     2.758567    -6.442941     4.581679
H     2.012942    -7.023672     4.407473
H     2.246775    -4.502874    -6.788358
O     2.077105    -4.990674    -5.972471
H     1.813145    -4.298672    -5.317474
H     6.430403    -4.092319    -0.501935
O     7.183009    -4.496245    -0.038398
H     7.689884    -4.919729    -0.759043
H    -1.726973     4.517307     7.696431
O    -0.829310     4.612361     8.084572
H    -0.644692     5.570758     8.108689
H    -5.113001     5.728035    -5.585443
O    -4.516197     4.958729    -5.603639
H    -3.761044     5.162863    -6.175504
H     3.273074    -2.516305    -8.435780
O     3.185270    -3.048971    -7.634466
H     4.061839    -3.024783    -7.205542
H    -0.659407     8.843622    -2.290842
O    -0.549619     9.671303    -1.764823
H     0.211762     9.501089    -1.187099
H     2.060939    -0.893810     5.211713
O     1.487156    -1.418044     5.799771
H     1.582841    -1.073028     6.696841
H     5.198372    -2.013988    -5.692392
O     5.543714    -2.780977    -6.214021
H     5.268871    -3.570285    -5.696115
H     5.684703    -5.200671     4.688378
O     5.162640    -5.114786     5.515119
H     4.440483    -5.746076     5.429813
H    -3.976749     1.174604     7.007100
O    -3.784055     1.652729     7.849593
H    -4.659843     2.037997     8.110777
H    -1.777900     9.628233    -0.788654
O    -2.606196     9.466243    -0.261258
H    -3.234337     10.113722    -0.593394
H    -5.964414     4.659248    -2.912855
O    -6.863735     4.526900    -3.286554
H    -6.729284     3.798095    -3.934880
H     0.081500    -7.046165    -1.139893
O     0.545247    -7.482321    -0.392002
H    -0.134124    -7.675992     0.256986
H    -7.629655     3.818079    -1.981335
O    -7.902408     3.234160    -1.240916
H    -7.761185     2.323410    -1.577910
H     3.968225    -0.874779     6.986835
O     3.977783     0.089383     6.977862
H     4.790032     0.378418     6.545478
H     2.261570     5.812421    -1.178153
O     3.198366     5.517763    -1.065582
H     3.372073     4.978300    -1.859567
H     6.538899    -5.918365     0.674429
O     6.169552    -6.653998     1.208657
H     5.265305    -6.375765     1.435223
H    -3.870031     4.761064     7.775051
O    -3.307781     4.300360     7.111076
H    -3.495607     3.356294     7.226673
H     5.748269    -7.933626     0.141560
O     5.459481    -8.620978    -0.495297
H     4.630765    -8.294612    -0.889823
H    -0.559219     2.065379     7.692581
O    -1.193118     2.002495     6.957931
H    -2.061399     1.860935     7.354885
H    -6.387511    -0.095974     1.063547
O    -6.709419    -0.176316     0.150972
H    -7.627238    -0.450082     0.169324
H    -5.380054    -3.038891    -0.585841
O    -5.128337    -2.336331     0.039814
H    -5.696432    -1.562790    -0.150092
H     4.319129     5.591739     0.317405
O     4.653832     5.691484     1.222758
H     3.960520     6.203872     1.674511
H    -9.051071    -1.715761    -2.251601
O    -8.503735    -1.514053    -1.465196
H    -8.631073    -2.250929    -0.827765
H    -5.523809     3.502863    -5.520691
O    -6.042749     2.788801    -5.111377
H    -5.376201     2.200508    -4.701944
H     3.173911    -0.876061    -5.654890
O     2.317806    -0.995982    -6.120297
H     2.402488    -1.845128    -6.593468
H     8.107043    -1.343231    -6.028943
O     8.114528    -2.207093    -5.572132
H     7.257750    -2.606095    -5.822317
H     7.615819     0.997487    -6.311063
O     7.426111     0.149062    -6.723749
H     6.444649     0.100267    -6.760016
H    -7.869918    -3.663657     0.932658
O    -8.548358    -3.556050     0.248417
H    -8.451043    -4.315792    -0.353106
H    -2.243186     8.790307     1.332884
O    -2.159827     8.149279     2.060218
H    -1.368425     7.609439     1.861001
H    -4.424686     6.589910     3.612955
O    -4.587456     7.017719     2.748533
H    -3.739550     7.474688     2.569350
H     3.399442     3.459925    -3.579342
O     3.248487     4.429288    -3.486106
H     2.283560     4.496199    -3.592951
H    -6.122655    -1.580715    -3.440723
O    -6.206735    -2.159033    -2.655985
H    -6.990333    -1.850489    -2.147924
H     6.464076     1.063776     4.739018
O     6.070666     1.603209     5.441834
H     6.259362     2.521581     5.150049
H     1.356898     1.736814    -5.823207
O     1.162289     1.140931    -5.068895
H     1.525062     0.277672    -5.338597
H    -2.490595     2.992136     10.483013
O    -2.279585     2.084085     10.210380
H    -2.877163     1.884783     9.477813
H     7.621994    -0.486175     3.083289
O     6.872708     0.090356     3.252433
H     6.179800    -0.509055     3.631912
H    -5.673968    -8.028425    -0.695491
O    -4.939280    -8.097756    -0.048992
H    -4.941819    -7.280046     0.472301
H    -5.182824    -0.095659    -4.714429
O    -5.801579    -0.806777    -4.952553
H    -6.638471    -0.363560    -5.152254
H     1.882969    -0.185649    -7.514887
O     1.681981     0.285263    -8.359337
H     2.258420    -0.121055    -9.011925
H     4.863982    -1.385265    -9.303548
O     3.938968    -1.155942    -9.585773
H     3.918623    -1.273527    -10.534830
H     7.555960    -2.558460     4.200998
O     7.702675    -2.595237     3.241543
H     7.208377    -3.385620     2.970065
H     6.708773    -5.882279     2.687562
O     6.771276    -5.206974     3.388564
H     7.647244    -5.292652     3.806077
H    -1.806086     8.981647     3.483198
O    -1.569457     9.275000     4.387416
H    -2.420954     9.412236     4.835982
H    -7.393317     1.595814    -5.248822
O    -7.968504     0.851800    -5.003639
H    -8.870212     1.251123    -4.929610
H     6.918058    -1.076391    -8.404274
O     6.335844    -1.797415    -8.667458
H     6.107280    -2.246161    -7.835086
H    -1.678744     6.258971    -7.022758
O    -2.073840     5.431311    -6.752177
H    -1.829996     5.303067    -5.786207
H     0.000018     3.335987     9.022435
O     0.195773     2.416214     9.277816
H    -0.602673     2.153113     9.784570
H     6.747103    -2.769797    -2.703840
O     6.216073    -3.513379    -2.362120
H     6.683503    -4.324774    -2.608653
H    -4.087270    -3.050969    -4.940884
O    -4.241999    -2.939217    -5.905689
H    -4.787415    -2.144949    -5.962506
H     1.978528     2.204884     8.465186
O     2.641836     2.316850     7.774603
H     3.063740     1.446400     7.659157
H    -6.919540    -5.174339    -1.391107
O    -7.835611    -5.442648    -1.636257
H    -7.968624    -5.040720    -2.519625
H    -3.837735     5.297917     5.673138
O    -3.798119     6.065010     5.080476
H    -2.861549     6.351266     5.184023
H    -7.891082     0.116078    -1.964425
O    -7.402799     0.841272    -2.376993
H    -7.628118     0.829307    -3.331128
H     5.832269     0.143017     0.411833
O     5.610976     0.864897     1.032495
H     6.121378     0.670007     1.845288
H    -6.219220     3.341856     7.394224
O    -6.090365     2.825966     8.223805
H    -6.689786     2.063657     8.137508
H     2.262595    -8.057364    -0.837672
O     2.939784    -8.046168    -1.533743
H     2.713912    -8.760192    -2.146541
H    -2.755817    -3.942005    -6.193775
O    -2.003370    -4.509601    -5.961418
H    -1.726096    -4.217235    -5.064819
H    -5.644443     3.788898     5.309696
O    -6.297266     4.189107     5.921187
H    -6.121536     5.130950     5.920857
H    -1.032931    -7.095199    -3.158173
O    -0.559696    -6.425952    -2.630065
H     0.347777    -6.357548    -3.011243
H     4.442066     2.034502     5.127512
O     3.500466     2.274561     5.008223
H     3.117093     2.291492     5.890428
H     4.110782     4.676022     6.297986
O     4.190155     5.406884     5.680577
H     3.623402     5.165716     4.909117
H     2.764484     3.636997     3.920569
O     2.586303     4.577005     3.754990
H     2.468019     4.675590     2.788030
H     9.388189     0.218546    -1.071723
O     8.582826     0.382825    -0.577565
H     8.405745    -0.435724    -0.084464
H    -2.099087     5.350612     10.648832
O    -2.822644     4.723832     10.880114
H    -3.039574     4.900551     11.795748
H     7.963951    -2.999440     0.329098
O     8.386466    -2.153315     0.583685
H     8.320515    -2.147466     1.545965
H     5.370894     3.680767     3.522251
O     6.026365     3.944992     4.189985
H     5.615190     4.665317     4.689418
H    -4.207406     5.055747     9.782691
O    -4.841121     5.205577     9.060858
H    -5.452712     4.456689     9.060481
H    -7.020917    -3.451633    -3.481568
O    -7.642402    -4.063052    -3.929207
H    -7.121971    -4.506181    -4.631305
H     0.030534     6.156296     10.768662
O    -0.833565     6.488395     10.520618
H    -0.716830     6.918538     9.654309
H     2.584563     1.510056    -4.105894
O     3.464167     1.860478    -3.868276
H     3.783089     1.346768    -3.096555
H    -6.976546    -0.185398     7.222967
O    -7.484282     0.594285     7.501835
H    -8.108673     0.775478     6.798260
H    -2.760301    -9.850718    -0.822149
O    -2.696062    -8.909243    -0.982533
H    -3.601464    -8.541528    -0.742132
H    -10.071384     3.105234    -4.896994
O    -10.190417     2.188162    -4.615991
H    -10.406002     2.272124    -3.666413
H    -2.076107    -2.998869     4.617583
O    -2.951846    -3.437410     4.687703
H    -2.946475    -4.055851     3.931827
H    -0.192828    -7.960791     2.491553
O     0.633752    -7.751109     2.939441
H     1.351723    -8.048071     2.352758
H     6.698526    -2.359561     6.393883
O     7.147040    -3.070527     5.931282
H     6.515988    -3.804450     5.893331
H    -5.278958    -1.971537     6.947305
O    -5.954430    -1.472406     6.463243
H    -5.938937    -1.850312     5.554287
H     0.833293     3.047608    -7.114877
O     1.750416     2.714857    -7.171691
H     1.734586     1.967499    -7.797436
H    -3.939434     8.796127     6.666462
O    -3.954593     8.783050     5.709363
H    -4.069241     7.849997     5.455502
H    -2.070755     10.332914    -2.737794
O    -2.979134     10.504322    -3.027252
H    -2.921910     11.134004    -3.745787
H     9.400731    -4.050424     4.046294
O     9.120517    -4.727617     4.669684
H     8.691627    -4.254066     5.393408
H    -0.748774    -5.979950    -5.835488
O    -0.045940    -6.547190    -5.501850
H     0.790079    -6.086740    -5.720041
H     1.832297     8.292958     0.659529
O     1.526506     8.617383    -0.215325
H     2.338429     8.653312    -0.749623
H     3.495230     2.941086    -6.664067
O     4.322608     2.649357    -6.255240
H     4.077213     2.377581    -5.345816
H     3.735969     7.139430    -1.234267
O     3.945439     8.074582    -1.447210
H     4.312366     8.017875    -2.341352
H     4.387718     0.002277    -7.911692
O     4.765812     0.148274    -7.042674
H     4.584962     1.080568    -6.799225
H     6.027118     1.945735    -0.477158
O     6.592880     2.137036    -1.239006
H     7.416798     1.656557    -1.044557
H     6.667799    -8.421034    -1.601380
O     7.303847    -8.211811    -2.338258
H     7.668962    -9.046811    -2.625956
H    -5.315238    -5.764713    -5.401645
O    -5.931868    -5.092224    -5.716460
H    -5.379821    -4.324810    -5.953969
H     0.685948     7.198619     7.596229
O    -0.215812     7.228115     7.955452
H    -0.771426     7.242319     7.138484
H    -8.907322    -2.805111    -4.097276
O    -9.426541    -1.995634    -3.930304
H    -9.139848    -1.331980    -4.561441
H    -2.423263    -5.966177    -2.138222
O    -3.301527    -5.679659    -2.406265
H    -3.489176    -6.054076    -3.292063
H    -3.000932    -5.878904    -5.403738
O    -3.601352    -6.487864    -4.930951
H    -3.120241    -7.308573    -4.764165
H    -1.390493     3.747158    -6.980772
O    -0.852344     2.988279    -6.712873
H    -1.093697     2.205049    -7.262605
H    -0.211382     0.432450    -8.215265
O    -1.107678     0.667544    -7.932763
H    -1.282271     0.146499    -7.133118
H    -10.424829     4.084069    -2.736508
O    -10.494036     3.308720    -2.164005
H    -9.662262     3.280242    -1.659491
H     4.579111     4.096700     1.717710
O     4.371854     3.176172     1.999557
H     5.085841     2.599420     1.715331
H     6.480761     1.407473    -4.221076
O     6.177858     0.783916    -3.526434
H     6.208832     1.280387    -2.683226
H     9.624430    -2.218576    -0.929191
O     9.901141    -2.005255    -1.829201
H     9.101084    -1.665745    -2.272672
H     9.958912    -3.315325    -3.097621
O     9.691086    -3.967544    -3.772095
H     9.297644    -3.459952    -4.492535
H    -7.715173    -8.545557    -1.658076
O    -6.976654    -7.952091    -1.786508
H    -7.353211    -7.038644    -1.777343
H     4.161308     6.094875    -3.824404
O     4.824508     6.794381    -3.741221
H     5.659541     6.338564    -3.603061
H     0.080858    -8.153452    -5.209268
O     0.103442    -9.136361    -5.076775
H     0.253375    -9.500801    -5.949151
H    -2.349421    -8.652015    -2.708693
O    -2.116008    -8.389195    -3.618592
H    -1.469928    -9.008319    -3.977205
H     2.163588    -10.801221    -3.488309
O     2.118574    -9.846630    -3.464223
H     1.333603    -9.575028    -3.990690
H     6.832812     3.339183    -4.577553
O     6.890293     2.660352    -5.277956
H     6.096748     2.794049    -5.818490
H    -3.572756    -3.691955     7.725412
O    -3.686313    -2.904362     7.194880
H    -3.435486    -3.144403     6.276608
H    -0.649408    -3.345166    -6.721308
O    -0.017700    -2.615098    -6.729143
H    -0.497897    -1.838273    -6.388186
H     0.638287     0.486973     8.753852
O     0.644763    -0.227760     8.113272
H    -0.277630    -0.516160     8.026159
H    -5.869076     7.368689    -4.270372
O    -6.360114     6.748752    -4.840683
H    -6.624360     6.001984    -4.254804
H    -4.214082     9.094862    -3.107059
O    -4.851343     8.365649    -3.083500
H    -5.207789     8.356102    -2.179536
H    -9.711110     5.827755    -4.645746
O    -10.246130     5.024758    -4.478970
H    -11.125149     5.224145    -4.803108
H     2.771487     6.537253     6.136637
O     1.811452     6.634850     6.235733
H     1.467407     5.721786     6.132512
H     4.807090     8.562649     0.078275
O     5.125924     8.563735     0.998954
H     5.531719     7.698839     1.129366
H     4.127120    -7.413446    -4.337755
O     3.368663    -7.697937    -4.879691
H     3.087498    -8.538196    -4.502683
H     0.385661     8.684624     4.230105
O     1.059420     8.036109     4.002589
H     1.286667     7.544559     4.817796
H     5.233936     4.204460    -3.161049
O     6.195443     4.171790    -3.109121
H     6.403364     3.591474    -2.360230
H    -2.583469    -1.515535     7.575911
O    -2.072835    -0.722197     7.795052
H    -2.697958    -0.095832     8.169987
H    -9.032666     7.963797    -4.145145
O    -8.960477     7.382177    -4.903500
H    -8.001539     7.223910    -5.027696
H     3.514211    -8.962863     1.096279
O     2.838289    -8.330482     1.345628
H     3.313821    -7.525319     1.624528
H     3.590056     8.188889     1.823565
O     2.800642     7.624507     1.939965
H     2.354859     7.863924     2.764926
N    -5.854689     7.542371    -0.511263
H    -6.040432     7.828400     0.388828
H    -5.038444     7.027851    -0.430609
