60

H     0.284879     2.955066    -0.584162
O     0.823071     2.372400    -1.161526
H     1.763236     2.476081    -0.871338
H     0.146445     5.682009    -0.646265
O     0.673766     6.348610    -1.153949
H     0.838801     7.132351    -0.576547
H    -0.483661     6.883090    -2.153301
O    -1.179105     7.319363    -2.715482
H    -1.992770     7.202959    -2.167871
H    -1.148658     4.274944     0.613219
O    -0.743642     4.321744    -0.274519
H    -1.452203     4.081901    -0.912451
H    -1.022310     4.552171    -3.958919
O    -1.697390     5.194248    -4.244815
H    -1.471616     6.017544    -3.759865
H     0.746653     3.340335    -2.613682
O     0.611730     3.734491    -3.510316
H     0.598775     2.956769    -4.078724
H    -1.159858     1.490478    -3.909943
O    -1.773351     2.161326    -4.279750
H    -1.497789     2.392524    -5.187220
H    -0.640428     8.862268    -2.141292
O    -0.485913     9.737997    -1.716803
H     0.182515     9.572474    -1.031219
H     2.267452     5.835948    -1.077089
O     3.224685     5.624209    -1.007800
H     3.410895     4.998310    -1.748694
H     3.389645     3.472796    -3.451584
O     3.670263     4.393582    -3.246719
H     3.252773     5.002068    -3.887509
H     1.342493     1.623582    -5.881897
O     1.170398     1.034203    -5.111799
H     1.562353     0.182354    -5.405456
H    -1.828334     6.227315    -7.170298
O    -2.090547     5.394639    -6.774298
H    -1.814744     5.416121    -5.800522
H     2.591265     1.437462    -4.104725
O     3.435207     1.855937    -3.840958
H     3.789330     1.337513    -3.086579
H     0.797642     3.007118    -7.233813
O     1.729369     2.698784    -7.250392
H     1.728223     1.939524    -7.866424
H     1.910829     8.316722     0.753719
O     1.566056     8.663305    -0.103526
H     2.370689     8.725147    -0.654434
H     3.573398     2.970287    -6.698413
O     4.377581     2.662239    -6.259441
H     4.090198     2.361350    -5.370948
H     3.817758     7.194909    -1.295921
O     4.008961     8.157006    -1.431921
H     4.657772     8.148747    -2.150042
H    -1.434898     3.744651    -7.071237
O    -0.937067     2.958470    -6.763478
H    -1.151830     2.187106    -7.340401
H     6.352589     7.310887    -4.101054
O     5.710386     6.950847    -3.484714
H     6.026292     6.046744    -3.302508
N     1.851727     6.033487    -4.532584
H     1.770358     6.754485    -3.899933
H     1.288085     5.325887    -4.166745
