603

H     0.192395     3.016291    -0.657597
O     0.716553     2.348457    -1.150119
H     1.654181     2.475064    -0.872341
H    -0.117301    -1.271085     3.078582
O     0.362022    -0.576618     2.596662
H    -0.100638     0.246089     2.839546
H    -2.408162     2.399848    -0.526090
O    -2.200010     1.927852     0.297619
H    -2.219285     0.980111     0.071627
H    -4.684701     0.538689     2.178336
O    -5.005416    -0.392889     2.186331
H    -4.496838    -0.873594     1.525179
H     0.046711    -0.325678     0.969251
O    -0.148381    -0.088503     0.041130
H     0.190761     0.808316    -0.077464
H    -0.310423    -3.573012     3.700217
O    -0.689762    -2.772375     4.100026
H    -0.439129    -2.832611     5.051154
H    -4.902721     2.522249     1.330476
O    -4.265156     2.112956     1.947167
H    -3.421271     2.092718     1.436765
H    -3.249424     3.891567    -2.202665
O    -2.513118     3.293676    -1.970011
H    -2.152433     3.006014    -2.828775
H    -0.146726    -3.818147     0.515123
O     0.194950    -3.005571     0.941453
H    -0.594427    -2.516931     1.245984
H    -2.402534    -1.555557     2.473389
O    -2.214926    -2.019055     1.631014
H    -2.469314    -1.429058     0.902943
H     2.057664    -1.462282    -1.096498
O     2.286633    -1.717863    -0.179033
H     1.494678    -2.143575     0.203084
H    -1.412551     1.808871     1.924235
O    -1.503102     1.410741     2.800080
H    -1.494673     2.122498     3.465578
H     0.194219    -2.716947    -1.556809
O    -0.559295    -2.103251    -1.614296
H    -0.382107    -1.378705    -0.977566
H    -3.455613    -2.936419    -0.392534
O    -2.737921    -3.427315    -0.814199
H    -2.026226    -2.796559    -1.026047
H     2.743280     0.102057     2.954630
O     2.853655    -0.074366     3.916316
H     2.938009     0.820205     4.318886
H    -3.532380     6.371654    -0.531378
O    -3.289913     7.035116    -1.229492
H    -3.148898     7.879120    -0.757104
H     3.882330     0.559415     1.215854
O     2.931285     0.379567     1.328472
H     2.693114    -0.371950     0.748354
H    -5.789795     0.839262    -1.609561
O    -4.879350     1.165622    -1.480766
H    -4.990946     1.993090    -0.967833
H    -1.227565     5.380212     2.229809
O    -1.852787     4.634085     2.109158
H    -1.935896     4.214286     2.970638
H     3.479820     2.740047     0.458593
O     3.236982     2.700081    -0.481806
H     3.568251     1.857051    -0.832456
H     1.475220    -4.711722    -2.236568
O     1.540327    -3.936080    -1.661410
H     2.336028    -3.475171    -2.009834
H    -0.928250    -0.095191    -2.536837
O    -0.291302     0.556489    -2.857236
H    -0.033480     1.137321    -2.118261
H     1.675937    -4.704096    -0.163271
O     1.781161    -5.343436     0.577710
H     1.314613    -6.151972     0.279182
H    -1.237937    -3.274817    -2.874558
O    -1.061322    -3.957280    -3.535510
H    -0.939749    -4.805136    -3.066998
H    -2.808968     3.289283     4.714726
O    -1.827322     3.286295     4.685719
H    -1.539899     2.878839     5.521563
H     0.938047     5.010562     4.102862
O    -0.007574     5.244518     4.152024
H    -0.482927     4.442044     4.406477
H    -1.751315    -4.661643    -0.370180
O    -0.988065    -5.205449    -0.085267
H    -1.340850    -5.890279     0.492335
H    -3.914044     5.827733    -2.588736
O    -4.264887     4.994745    -2.921140
H    -4.106541     4.961118    -3.888791
H    -2.459817    -3.707219     1.935051
O    -2.477499    -4.621923     2.284607
H    -1.541581    -4.850062     2.453402
H    -4.705624    -2.982205    -2.906262
O    -3.852289    -3.216126    -3.310067
H    -3.524535    -4.010603    -2.843920
H     0.305452     1.350651     4.634523
O     0.818807     2.108819     4.306141
H     0.859420     2.770219     5.011075
H    -4.674369    -5.175156    -1.581269
O    -5.378101    -4.821355    -1.010334
H    -5.169242    -5.176903    -0.125325
H     2.314789    -6.494972    -4.026139
O     1.976011    -6.166748    -3.173169
H     2.406005    -6.742907    -2.509312
H     0.460103    -3.389129    -3.993647
O     1.265220    -3.023218    -4.413435
H     0.949155    -2.649642    -5.262348
H     1.979886    -1.786572     2.965366
O     2.073549    -2.743820     2.831724
H     1.461929    -2.930464     2.088940
H    -3.022243    -1.814408    -3.208975
O    -2.598326    -0.928775    -3.142233
H    -3.252088    -0.281534    -3.462122
H    -3.202704     4.963737     1.090754
O    -3.981519     5.340067     0.633772
H    -4.398781     5.896901     1.339446
H     0.853580     2.232312     2.613408
O     0.959646     2.230885     1.642830
H     1.683993     1.604365     1.479835
H     0.186132     5.642166    -0.733619
O     0.711336     6.303967    -1.239062
H     0.851988     7.102719    -0.681552
H     0.328900     7.016031     2.618446
O    -0.030555     6.637526     1.799028
H     0.633059     5.966006     1.539097
H    -2.493268     0.266870     3.328519
O    -2.750895    -0.556166     3.805608
H    -1.993996    -0.617599     4.426029
H    -0.915057     0.618386     6.022845
O    -0.636172     0.073469     5.260378
H     0.155119    -0.436135     5.567009
H     0.656050    -5.112858     1.914803
O     0.144713    -5.176248     2.747686
H     0.244171    -6.112256     3.001192
H    -2.150836    -8.100672     0.443233
O    -1.828677    -7.615916     1.230435
H    -2.615370    -7.302189     1.684249
H    -0.375620     6.852699    -2.300729
O    -1.119439     7.274914    -2.801818
H    -1.911775     7.148785    -2.241355
H    -1.124929     4.295093     0.591580
O    -0.748324     4.357376    -0.302896
H    -1.452914     4.117271    -0.938367
H    -4.434522     2.733361     3.511174
O    -4.435414     2.902077     4.475971
H    -4.522232     2.018081     4.883082
H     1.914326    -3.611658     4.436983
O     2.025576    -4.093834     5.283610
H     2.709988    -3.562354     5.752200
H     4.660334    -3.219271     0.867554
O     4.505685    -3.142373    -0.099233
H     3.647422    -2.663736    -0.186877
H    -2.735513    -0.756752    -1.348799
O    -3.064628    -0.486089    -0.475371
H    -3.864812     0.039463    -0.683637
H    -1.617564    -0.766208    -4.623842
O    -1.106591    -0.549991    -5.425309
H    -0.397254     0.044981    -5.135974
H     1.787972    -1.728262    -3.357439
O     1.879787    -0.982878    -2.732548
H     1.103554    -0.404402    -2.865194
H     3.617011    -3.156172     2.590497
O     4.577774    -3.377535     2.508699
H     4.640438    -4.338072     2.629142
H     3.383199    -6.140732     3.141935
O     3.745387    -5.947343     2.244879
H     3.012013    -5.600100     1.695876
H    -3.342179     1.608280    -4.172290
O    -4.188591     1.138913    -3.985863
H    -4.409672     1.282899    -3.029584
H    -5.092584     4.141322     0.068872
O    -5.531786     3.276130    -0.037893
H    -6.461249     3.396856    -0.322050
H     6.720085    -1.207811    -1.325591
O     5.947324    -1.058093    -0.774478
H     5.525247    -1.925218    -0.581319
H     4.581282    -3.189230    -2.443708
O     3.715216    -3.015653    -2.862188
H     3.719599    -3.633049    -3.619474
H     4.538523    -2.346528     5.621377
O     4.225591    -2.853864     6.410576
H     4.593818    -3.746744     6.261377
H    -0.778934     6.315630     5.097633
O    -1.375829     6.891840     5.634907
H    -1.386901     7.769419     5.194415
H     4.686786    -0.158864    -1.434373
O     3.921397     0.385362    -1.698551
H     3.228741    -0.213153    -2.032452
H    -0.736386     4.515673    -4.017648
O    -1.517166     5.060527    -4.228076
H    -1.366087     5.926174    -3.803407
H     0.658098     3.191268    -2.635532
O     0.670065     3.569504    -3.543434
H     0.717468     2.806790    -4.129889
H    -5.417405    -5.201070     1.781353
O    -4.722485    -5.798117     1.425609
H    -3.880246    -5.385079     1.694932
H     7.876208    -1.714396    -3.992455
O     7.615681    -1.402073    -3.093140
H     7.130999    -0.556979    -3.250426
H     3.694560    -5.085938    -5.269656
O     4.456323    -4.715223    -4.785158
H     4.837051    -5.428114    -4.239386
H    -3.817138     0.001310     4.938477
O    -4.421233     0.466226     5.567610
H    -5.079928    -0.193883     5.858245
H     3.437965    -5.963565    -0.503139
O     4.314339    -5.718393    -0.812701
H     4.390367    -4.755900    -0.670368
H     4.998158    -0.354185    -4.127691
O     4.463489    -1.064325    -4.520587
H     4.133118    -1.647861    -3.804878
H    -1.172013     1.564379    -3.923428
O    -1.819591     2.187146    -4.310414
H    -1.458547     2.519191    -5.155018
H     4.865541    -6.343427    -2.291305
O     5.201016    -6.667315    -3.156264
H     6.017391    -7.150223    -2.967793
H     8.724971    -5.119114    -2.878950
O     8.031502    -5.536546    -2.322989
H     8.064249    -6.493685    -2.427435
H     2.327676     4.699516     0.482274
O     1.746871     4.681208     1.252253
H     1.386684     3.761535     1.326687
H    -4.478715    -2.657921     4.216436
O    -5.369085    -2.294826     4.015543
H    -5.213048    -1.516722     3.443545
H    -5.873410    -3.202984     1.307270
O    -6.339369    -3.760333     1.972421
H    -6.154785    -3.323336     2.824499
H     1.648973     3.442431     6.889016
O     1.029087     3.958231     6.353157
H     0.243645     4.111954     6.921921
H     4.964267    -2.200636     3.647100
O     4.984087    -1.486117     4.315730
H     4.176929    -0.922944     4.151737
H     2.339900    -5.705394     4.869758
O     2.732244    -6.571681     4.597872
H     2.006810    -7.155051     4.352643
H     2.256505    -4.525819    -6.774060
O     2.084456    -5.014880    -5.959464
H     1.817693    -4.324158    -5.304223
H     6.417344    -4.130103    -0.471828
O     7.167582    -4.535384    -0.005428
H     7.677222    -4.957713    -0.724974
H    -1.762426     4.463592     7.717795
O    -0.863910     4.560101     8.105705
H    -0.682904     5.519158     8.132719
H    -5.105279     5.695800    -5.591334
O    -4.498689     4.931462    -5.610569
H    -3.739189     5.145394    -6.173645
H     3.290313    -2.536522    -8.413940
O     3.199014    -3.070152    -7.613681
H     4.074084    -3.048024    -7.181734
H    -0.653634     8.815999    -2.252390
O    -0.530810     9.643688    -1.732177
H     0.228924     9.467090    -1.152809
H     2.100247    -0.702767     5.257184
O     1.575152    -1.143234     5.953072
H     1.719126    -0.644167     6.771862
H     5.205611    -2.041051    -5.662290
O     5.552833    -2.807166    -6.183859
H     5.275109    -3.597404    -5.668831
H     5.653527    -5.248472     4.712194
O     5.127820    -5.164216     5.537581
H     4.405085    -5.794379     5.449199
H    -4.013481     1.129018     7.010370
O    -3.826677     1.609352     7.853150
H    -4.704487     1.991476     8.110807
H    -1.849093     9.603859    -0.723051
O    -2.711242     9.478380    -0.251560
H    -3.320231     10.108021    -0.641001
H    -5.946909     4.688986    -2.938166
O    -6.854347     4.572445    -3.286349
H    -6.762712     3.870459    -3.963706
H     0.069167    -7.078509    -1.138064
O     0.529942    -7.516303    -0.389187
H    -0.152774    -7.711028     0.256132
H    -7.641180     3.792133    -1.980948
O    -7.906242     3.204891    -1.242519
H    -7.763492     2.296203    -1.582353
H     3.938694    -0.926266     7.011882
O     3.942909     0.037854     7.009115
H     4.753576     0.333963     6.578186
H     2.255304     5.778412    -1.147731
O     3.190060     5.483953    -1.030676
H     3.368356     4.944746    -1.824155
H     6.520841    -5.958131     0.701827
O     6.149672    -6.693170     1.235893
H     5.243418    -6.416557     1.455413
H    -3.905235     4.709105     7.788817
O    -3.335702     4.246746     7.132262
H    -3.532137     3.303025     7.239986
H     5.730348    -7.972227     0.162118
O     5.443397    -8.657958    -0.476738
H     4.616066    -8.330838    -0.873823
H    -0.601259     2.020176     7.710207
O    -1.225604     1.947121     6.969533
H    -2.097456     1.809916     7.360826
H    -6.403067    -0.127805     1.053380
O    -6.722198    -0.207438     0.139425
H    -7.640843    -0.478447     0.155698
H    -5.393164    -3.068779    -0.596974
O    -5.140369    -2.366947     0.028821
H    -5.709711    -1.593587    -0.158206
H     4.308580     5.554043     0.358938
O     4.639306     5.652382     1.265620
H     3.944245     6.163846     1.715823
H    -9.056745    -1.741196    -2.273083
O    -8.510859    -1.541672    -1.485329
H    -8.641484    -2.278722    -0.848585
H    -5.515957     3.473543    -5.527441
O    -6.036086     2.763318    -5.115562
H    -5.372187     2.175981    -4.700079
H     3.181562    -0.901749    -5.630048
O     2.327193    -1.019532    -6.099130
H     2.412572    -1.868162    -6.573210
H     8.116129    -1.371547    -5.986634
O     8.121137    -2.236101    -5.531121
H     7.265150    -2.634179    -5.785644
H     7.627309     0.970280    -6.266260
O     7.438550     0.122630    -6.680914
H     6.457216     0.074513    -6.721131
H    -7.888167    -3.694273     0.912444
O    -8.563558    -3.585599     0.225072
H    -8.464703    -4.345062    -0.376273
H    -2.414675     8.724078     1.312170
O    -2.267042     8.134499     2.065025
H    -1.497391     7.580148     1.843733
H    -4.463199     6.423128     3.505511
O    -4.629392     6.850892     2.649088
H    -3.864478     7.435670     2.513169
H     3.402027     3.429878    -3.545152
O     3.250188     4.399264    -3.450770
H     2.285748     4.465652    -3.561829
H    -6.124279    -1.604620    -3.451440
O    -6.210782    -2.185166    -2.668959
H    -6.995793    -1.877524    -2.162002
H     6.434600     1.015940     4.779776
O     6.038184     1.552691     5.483029
H     6.228128     2.472135     5.194264
H     1.367853     1.712581    -5.800169
O     1.170106     1.116240    -5.047158
H     1.532194     0.252629    -5.317024
H    -2.538549     2.936316     10.494927
O    -2.326138     2.029430     10.219382
H    -2.922733     1.833560     9.484665
H     7.597828    -0.531069     3.124715
O     6.847566     0.044089     3.294139
H     6.153830    -0.556239     3.668725
H    -5.688720    -8.058132    -0.717499
O    -4.955903    -8.129018    -0.069047
H    -4.960676    -7.312692     0.454760
H    -5.178638    -0.117747    -4.718894
O    -5.795764    -0.828101    -4.962644
H    -6.632708    -0.384896    -5.162370
H     1.898392    -0.206753    -7.493411
O     1.701017     0.266728    -8.337374
H     2.279020    -0.138971    -8.988988
H     4.885073    -1.404652    -9.273486
O     3.961369    -1.173704    -9.558586
H     3.944221    -1.290184    -10.507858
H     7.527605    -2.605826     4.237686
O     7.675575    -2.641054     3.278535
H     7.183068    -3.431395     3.004075
H     6.681089    -5.925999     2.716242
O     6.741217    -5.253274     3.420607
H     7.616986    -5.339658     3.838812
H    -1.835650     8.930936     3.518491
O    -1.590438     9.233909     4.418133
H    -2.440603     9.367142     4.870891
H    -7.386566     1.573322    -5.259621
O    -7.963481     0.829687    -5.018090
H    -8.864770     1.230626    -4.944414
H     6.936229    -1.099371    -8.365898
O     6.354152    -1.819210    -8.632547
H     6.122420    -2.269706    -7.802012
H    -1.658341     6.239146    -7.004460
O    -2.058357     5.413997    -6.733683
H    -1.813905     5.281416    -5.769263
H    -0.041311     3.281160     9.043659
O     0.152898     2.360353     9.297757
H    -0.649590     2.099044     9.800131
H     6.742775    -2.803736    -2.669511
O     6.210564    -3.547539    -2.330068
H     6.677731    -4.358800    -2.577635
H    -4.083455    -3.073957    -4.946935
O    -4.233459    -2.959612    -5.912287
H    -4.779648    -2.165851    -5.969227
H     1.932435     2.151830     8.492927
O     2.597162     2.261502     7.802942
H     3.027741     1.395634     7.691663
H    -6.930167    -5.202170    -1.411566
O    -7.845089    -5.470352    -1.661379
H    -7.974943    -5.065933    -2.543921
H    -3.856581     5.239904     5.706355
O    -3.820273     6.009416     5.117025
H    -2.886229     6.301777     5.214872
H    -7.895613     0.090044    -1.978244
O    -7.403611     0.813464    -2.389599
H    -7.628554     0.803540    -3.343530
H     5.818473     0.103958     0.447637
O     5.595831     0.824908     1.068989
H     6.102740     0.628388     1.883151
H    -6.255526     3.297451     7.393148
O    -6.132537     2.779152     8.222363
H    -6.731604     2.017290     8.130472
H     2.246674    -8.091843    -0.831064
O     2.928301    -8.080251    -1.522885
H     2.704395    -8.792308    -2.138803
H    -2.747711    -3.963321    -6.196629
O    -1.995377    -4.530727    -5.963255
H    -1.722282    -4.241116    -5.064452
H    -5.673950     3.749172     5.310139
O    -6.324736     4.147020     5.924842
H    -6.159179     5.090710     5.913028
H    -1.038387    -7.123563    -3.160230
O    -0.565780    -6.455551    -2.629891
H     0.342435    -6.386871    -3.008459
H     4.412897     1.988894     5.162602
O     3.471737     2.228528     5.040180
H     3.083674     2.248313     5.920050
H     4.076617     4.627470     6.337594
O     4.162417     5.357387     5.720047
H     3.596357     5.119551     4.946950
H     2.738454     3.592596     3.951875
O     2.564542     4.533465     3.787728
H     2.447439     4.634143     2.821020
H     9.379402     0.180581    -1.022385
O     8.572638     0.344298    -0.530280
H     8.393122    -0.475548    -0.040327
H    -2.147881     5.295498     10.666611
O    -2.870649     4.666917     10.894950
H    -3.093859     4.844920     11.808779
H     7.948309    -3.039803     0.366672
O     8.370089    -2.194351     0.624783
H     8.301186    -2.190418     1.586744
H     5.347526     3.635714     3.564218
O     6.000198     3.896100     4.236244
H     5.588249     4.616786     4.734877
H    -4.254056     5.001470     9.792721
O    -4.883862     5.155612     9.068673
H    -5.497317     4.408244     9.061882
H    -7.022869    -3.475390    -3.499228
O    -7.642887    -4.085194    -3.951181
H    -7.120057    -4.527406    -4.651853
H    -0.017603     6.101163     10.794868
O    -0.881050     6.433675     10.545263
H    -0.762186     6.865191     9.679827
H     2.588392     1.481722    -4.078693
O     3.466855     1.832115    -3.836412
H     3.782884     1.315726    -3.065179
H    -7.013779    -0.232251     7.212847
O    -7.522522     0.547009     7.490560
H    -8.143997     0.730214     6.784883
H    -2.776574    -9.881915    -0.836753
O    -2.710696    -8.940320    -0.995705
H    -3.616776    -8.572062    -0.757142
H    -10.063809     3.086560    -4.913696
O    -10.183638     2.168905    -4.634813
H    -10.402446     2.251867    -3.685673
H    -2.297635    -3.174452     4.416980
O    -3.156432    -3.624038     4.618374
H    -3.199788    -4.278739     3.898938
H    -0.219699    -7.999550     2.493843
O     0.606602    -7.789131     2.942185
H     1.324696    -8.088620     2.357089
H     6.663741    -2.409351     6.428848
O     7.113854    -3.118181     5.964596
H     6.485942    -3.854057     5.922086
H    -5.307834    -2.028319     6.943902
O    -5.975699    -1.524242     6.460651
H    -5.963905    -1.897671     5.548135
H     0.848887     3.025721    -7.091802
O     1.766196     2.693432    -7.145380
H     1.752986     1.946639    -7.772076
H    -3.981580     8.740949     6.686224
O    -3.975020     8.740134     5.728882
H    -4.101668     7.813265     5.459374
H    -2.049288     10.307043    -2.715387
O    -2.949629     10.490753    -3.019800
H    -2.874516     11.125123    -3.731983
H     9.372200    -4.100241     4.086094
O     9.086658    -4.777313     4.707201
H     8.659402    -4.303152     5.431331
H    -0.743332    -6.003069    -5.834843
O    -0.041841    -6.571307    -5.500019
H     0.795108    -6.110961    -5.714327
H     1.820062     8.256614     0.697295
O     1.520616     8.580325    -0.180789
H     2.337069     8.617294    -0.708562
H     3.509057     2.917042    -6.630633
O     4.334787     2.624920    -6.218845
H     4.085781     2.350603    -5.311174
H     3.732316     7.105065    -1.192069
O     3.941049     8.040643    -1.403400
H     4.312832     7.985020    -2.295684
H     4.404709    -0.020211    -7.880519
O     4.779442     0.124479    -7.009806
H     4.598214     1.056393    -6.765714
H     6.017370     1.908264    -0.436777
O     6.586204     2.101066    -1.195933
H     7.409051     1.619503    -0.999581
H     6.656350    -8.456962    -1.578522
O     7.295577    -8.246083    -2.311967
H     7.661402    -9.080461    -2.600637
H    -5.311194    -5.785874    -5.417679
O    -5.925774    -5.112502    -5.734532
H    -5.372333    -4.344894    -5.967802
H     0.650281     7.148793     7.628673
O    -0.252270     7.176497     7.985397
H    -0.805208     7.193376     7.166100
H    -8.906358    -2.826093    -4.121180
O    -9.426199    -2.016866    -3.955168
H    -9.136176    -1.351779    -4.583242
H    -2.431984    -5.995700    -2.142937
O    -3.308009    -5.706861    -2.415535
H    -3.492954    -6.080671    -3.301954
H    -2.996393    -5.901842    -5.411951
O    -3.599036    -6.511257    -4.942914
H    -3.119196    -7.332478    -4.775072
H    -1.377223     3.723990    -6.967109
O    -0.838969     2.966989    -6.695663
H    -1.075911     2.182876    -7.247037
H    -0.192874     0.413846    -8.200363
O    -1.089332     0.650616    -7.919663
H    -1.268408     0.126285    -7.123036
H    -10.423938     4.062070    -2.749402
O    -10.495033     3.282780    -2.182616
H    -9.667450     3.253765    -1.670929
H     4.562765     4.055704     1.757528
O     4.354272     3.134754     2.036467
H     5.068725     2.558256     1.752955
H     6.484688     1.376794    -4.179716
O     6.178641     0.752330    -3.487278
H     6.206970     1.247184    -2.643089
H     9.613969    -2.257332    -0.883540
O     9.894109    -2.041922    -1.781928
H     9.095761    -1.701658    -2.227907
H     9.955934    -3.350088    -3.052862
O     9.689623    -4.001066    -3.729057
H     9.299529    -3.492059    -4.450328
H    -7.726644    -8.572228    -1.686881
O    -6.987266    -7.979498    -1.813907
H    -7.362997    -7.065579    -1.803540
H     4.166698     6.063995    -3.783022
O     4.828837     6.763868    -3.694801
H     5.663752     6.308185    -3.555307
H     0.082806    -8.178448    -5.209703
O     0.105258    -9.161534    -5.078953
H     0.257163    -9.524485    -5.951605
H    -2.358084    -8.679792    -2.719060
O    -2.119629    -8.415437    -3.627370
H    -1.473419    -9.035321    -3.984242
H     2.157701    -10.830408    -3.485701
O     2.113902    -9.875761    -3.460799
H     1.330649    -9.602861    -3.989309
H     6.839387     3.309412    -4.531126
O     6.898790     2.631687    -5.232327
H     6.107491     2.766878    -5.775756
H    -3.617829    -3.567328     7.808273
O    -3.705512    -2.883080     7.143744
H    -3.512396    -3.315267     6.277037
H    -0.638777    -3.366718    -6.714999
O    -0.006943    -2.636571    -6.719517
H    -0.488472    -1.860608    -6.378584
H     0.583743     0.515211     8.971458
O     0.531365    -0.273827     8.419154
H    -0.429345    -0.408413     8.295429
H    -5.824420     7.370435    -4.246474
O    -6.326355     6.753265    -4.810187
H    -6.616642     6.021905    -4.221016
H    -4.269182     9.101758    -3.250601
O    -4.806596     8.306404    -3.147301
H    -4.401706     7.825116    -2.407608
H    -9.703101     5.807349    -4.656631
O    -10.238394     5.003424    -4.495930
H    -11.117659     5.206198    -4.817211
H     2.740954     6.489650     6.173204
O     1.780885     6.587518     6.268823
H     1.435213     5.675423     6.163033
H     4.800335     8.524628     0.127150
O     5.114963     8.523731     1.049069
H     5.519763     7.658482     1.180097
H     4.126384    -7.442618    -4.322001
O     3.369890    -7.725248    -4.867459
H     3.086339    -8.566087    -4.493479
H     0.359176     8.639989     4.261895
O     1.037172     7.994920     4.035706
H     1.259325     7.500584     4.850547
H     5.235460     4.171814    -3.118901
O     6.196694     4.139966    -3.062823
H     6.401916     3.557327    -2.314956
H    -2.667244    -1.458611     7.571595
O    -2.186637    -0.659134     7.868056
H    -2.859352    -0.083745     8.250817
H    -9.017427     7.945220    -4.151597
O    -8.952526     7.361837    -4.909163
H    -7.995268     7.196032    -5.040976
H     3.491522    -9.002741     1.104637
O     2.816067    -8.370522     1.355692
H     3.291294    -7.565867     1.635498
H     3.574361     8.149570     1.867966
O     2.783118     7.586580     1.977242
H     2.333714     7.822726     2.801535
N    -0.235601    -3.378475     6.719322
H     0.013293    -2.601459     7.231649
H     0.627513    -3.712580     6.398266
