45
Coordinates from ORCA-job grain_mol_opt.QMRegion
  H   -0.09940128570865     -1.24556965345546      3.08791349539742
  O   0.37806107669954     -0.55226878259460      2.60255192294500
  H   -0.08431439552063      0.27087580011977      2.84441426659089
  H   -0.28881421377527     -3.54526955208821      3.71859332741034
  O   -0.66792066370905     -2.74367810002370      4.11661452429668
  H   -0.41489194474928     -2.80013817307897      5.06726626071682
  H   1.99735494597312     -1.75965858817895      2.97102202347528
  O   2.09201121948956     -2.71726362323876      2.84061075249944
  H   1.47897875698983     -2.90711639849328      2.09978178144426
  H   -2.47588661885773      0.29093501000382      3.33913436092491
  O   -2.73133631763502     -0.53088059749772      3.81949375058217
  H   -1.97311147492140     -0.58924423239627      4.43851252532283
  H   -0.89190915221812      0.65328945718939      6.02844708151486
  O   -0.61423117978084      0.10639109746603      5.26692587094961
  H   0.17816605545925     -0.40165399371605      5.57363503860046
  H   0.67497345200596     -5.09108587529679      1.93551252693013
  O   0.16608417546626     -5.15182189808743      2.77010169279152
  H   0.26722377239606     -6.08686501095031      3.02652465138605
  H   1.93760375625134     -3.57966091190822      4.44942301990071
  O   2.05143060462432     -4.05883186068395      5.29726223944869
  H   2.73650149564703     -3.52537889558410      5.76253686950498
  H   4.56372032640539     -2.30861062227778      5.62381890871467
  O   4.25310197396305     -2.81335921409533      6.41561396997119
  H   4.62184459700419     -3.70639024467914      6.26894636700263
  H   2.36619395882312     -5.67223503471458      4.88810695001781
  O   2.75867613459115     -6.53897533513001      4.61841070454440
  H   2.03285855645221     -7.12338555963918      4.37671272708444
  H   2.12224454714430     -0.66761927873203      5.26014134444751
  O   1.59901922069506     -1.10613717699314      5.95870809786000
  H   1.74417189458126     -0.60401745401584      6.77542329327374
  H   -2.27442049804912     -3.14686995492443      4.43870769755154
  O   -3.13238702620197     -3.59624275522067      4.64383511340452
  H   -3.17735006579608     -4.25376458880013      3.92714444900799
  H   -3.58686576571504     -3.52883239339574      7.83395490470097
  O   -3.67624888585968     -2.84662104234543      7.16754299703257
  H   -3.48471650277039     -3.28171277308706      6.30185618839799
  H   0.61384269825352      0.56203863878815      8.97423081554222
  O   0.56091622021591     -0.22869035595634      8.42445281463228
  H   -0.39987373175025     -0.36498185769378      8.30327007885816
  H   -2.63837207735788     -1.41969881618825      7.58832644376426
  O   -2.15784884354871     -0.61877289787249      7.88086605750846
  H   -2.83002473885057     -0.04289610335082      8.26381041037058
  O   -0.20627341252920     -3.34084932703637      6.73753353917318
  H   0.04337612555923     -2.56229885535764      7.24720534738286
  H   0.65614877531158     -3.67516956593153      6.41477228670557
