603

H     0.199925     3.049360    -0.688982
O     0.725506     2.384277    -1.183858
H     1.663976     2.518036    -0.911936
H    -0.040724    -1.285548     3.147169
O     0.343200    -0.584082     2.598524
H    -0.136444     0.227277     2.834686
H    -2.395701     2.414820    -0.538247
O    -2.179353     1.946565     0.285455
H    -2.191454     0.998269     0.062142
H    -4.641271     0.542230     2.189104
O    -4.953706    -0.392671     2.203637
H    -4.447511    -0.868519     1.537000
H     0.085731    -0.289460     0.945878
O    -0.114217    -0.054841     0.018711
H     0.218876     0.843930    -0.102455
H    -0.104719    -3.555210     3.777396
O    -0.387663    -2.726144     4.197117
H     0.259976    -2.550983     4.896689
H    -4.878259     2.523621     1.335157
O    -4.234838     2.118259     1.948457
H    -3.393350     2.104605     1.433640
H    -3.258916     3.895805    -2.213000
O    -2.517198     3.303268    -1.983886
H    -2.159854     3.016443    -2.844260
H    -0.085619    -3.787078     0.502152
O     0.251289    -2.966393     0.915979
H    -0.537224    -2.484408     1.231756
H    -2.343554    -1.530647     2.472694
O    -2.155452    -1.996692     1.631469
H    -2.418713    -1.411461     0.902311
H     2.093988    -1.415842    -1.131668
O     2.332038    -1.667420    -0.215764
H     1.546304    -2.097426     0.172845
H    -1.376858     1.837854     1.907720
O    -1.465324     1.440422     2.784071
H    -1.451390     2.152975     3.448842
H     0.235555    -2.686083    -1.572977
O    -0.522566    -2.077635    -1.627702
H    -0.345820    -1.350374    -0.993959
H    -3.404076    -2.926763    -0.383521
O    -2.685556    -3.414990    -0.806690
H    -1.979458    -2.780558    -1.026942
H     2.795458     0.167113     2.918995
O     2.894400    -0.013491     3.880118
H     2.987466     0.879081     4.284322
H    -3.548135     6.378408    -0.546377
O    -3.315440     7.041486    -1.248171
H    -3.176962     7.887848    -0.779167
H     3.919669     0.624193     1.168016
O     2.970089     0.439208     1.283161
H     2.736066    -0.317598     0.708588
H    -5.773091     0.827483    -1.594599
O    -4.864067     1.160075    -1.472002
H    -4.977954     1.988428    -0.960885
H    -1.217266     5.411128     2.201398
O    -1.838362     4.660485     2.086967
H    -1.911292     4.242103     2.950128
H     3.496656     2.801175     0.405084
O     3.247903     2.755474    -0.534091
H     3.582366     1.913067    -0.882466
H     1.527242    -4.673885    -2.256454
O     1.588786    -3.894944    -1.685378
H     2.379587    -3.429807    -2.038388
H    -0.911226    -0.074938    -2.551869
O    -0.281259     0.580355    -2.878605
H    -0.022424     1.165167    -2.143017
H     1.740520    -4.658494    -0.185600
O     1.854734    -5.294354     0.556431
H     1.394432    -6.108363     0.263870
H    -1.200142    -3.257581    -2.879189
O    -1.023963    -3.940613    -3.539663
H    -0.892567    -4.786403    -3.069867
H    -2.767187     3.317134     4.702837
O    -1.786142     3.320175     4.665583
H    -1.488251     2.920608     5.501192
H     0.963852     5.062568     4.061060
O     0.016623     5.289723     4.115170
H    -0.449887     4.484206     4.375875
H    -1.688979    -4.642433    -0.367324
O    -0.920020    -5.179260    -0.085275
H    -1.261549    -5.866284     0.496422
H    -3.940011     5.826017    -2.599422
O    -4.287101     4.989699    -2.927476
H    -4.134857     4.954725    -3.896033
H    -2.387171    -3.682187     1.941608
O    -2.399670    -4.586505     2.317286
H    -1.458146    -4.818930     2.456422
H    -4.670520    -2.990283    -2.887783
O    -3.818237    -3.219141    -3.296574
H    -3.481561    -4.010150    -2.830904
H     0.363702     1.401889     4.605955
O     0.861479     2.165935     4.268649
H     0.911586     2.824454     4.975786
H    -4.614306    -5.179126    -1.557294
O    -5.316437    -4.828933    -0.981997
H    -5.098546    -5.180826    -0.097913
H     2.366620    -6.456288    -4.045880
O     2.031219    -6.127556    -3.191855
H     2.469236    -6.699031    -2.528754
H     0.490627    -3.363207    -4.009293
O     1.289975    -2.992630    -4.436073
H     0.964906    -2.623750    -5.283632
H     2.000417    -1.720659     2.972907
O     2.157029    -2.651072     2.755133
H     1.470793    -2.868272     2.090340
H    -2.997542    -1.810967    -3.205266
O    -2.579695    -0.922166    -3.143543
H    -3.240158    -0.280449    -3.460863
H    -3.197072     4.977640     1.077230
O    -3.982088     5.346460     0.624564
H    -4.398169     5.902681     1.331560
H     0.888351     2.279505     2.579079
O     0.986588     2.274532     1.607431
H     1.716365     1.654910     1.442297
H     0.174458     5.675016    -0.771911
O     0.691020     6.339086    -1.283240
H     0.830111     7.140365    -0.728792
H     0.329606     7.058873     2.575229
O    -0.032652     6.676016     1.758988
H     0.633852     6.008222     1.496781
H    -2.453815     0.223544     3.341995
O    -2.669455    -0.591208     3.848324
H    -1.906537    -0.625474     4.467793
H    -0.861211     0.573596     6.020873
O    -0.587245     0.055286     5.245802
H     0.131584    -0.543605     5.530673
H     0.760951    -4.969989     1.977731
O     0.219872    -5.082116     2.782467
H     0.372224    -6.000799     3.056903
H    -2.056502    -8.080937     0.457211
O    -1.733940    -7.590471     1.240627
H    -2.520039    -7.282890     1.699477
H    -0.407025     6.877105    -2.338552
O    -1.157320     7.292186    -2.836073
H    -1.944808     7.162369    -2.269663
H    -1.117787     4.322413     0.565875
O    -0.748233     4.384418    -0.331645
H    -1.455722     4.137869    -0.961198
H    -4.396585     2.745323     3.511003
O    -4.393384     2.916905     4.475308
H    -4.470109     2.033834     4.885723
H     2.074520    -3.548881     4.236424
O     2.014265    -4.019790     5.090350
H     2.527239    -3.482375     5.716472
H     4.721861    -3.152112     0.825309
O     4.564749    -3.075285    -0.144226
H     3.701302    -2.605538    -0.225982
H    -2.705633    -0.746499    -1.349412
O    -3.031749    -0.477232    -0.474387
H    -3.835840     0.043854    -0.679069
H    -1.610164    -0.756762    -4.632453
O    -1.106128    -0.539296    -5.437969
H    -0.399358     0.061792    -5.155125
H     1.810115    -1.690796    -3.387410
O     1.902174    -0.941945    -2.766725
H     1.120066    -0.370184    -2.894014
H     3.700521    -3.083822     2.538427
O     4.657777    -3.309393     2.450571
H     4.724797    -4.266079     2.592908
H     3.487743    -6.081862     3.113406
O     3.836860    -5.884892     2.209438
H     3.096487    -5.538773     1.671600
H    -3.348634     1.606405    -4.175695
O    -4.190272     1.131369    -3.982004
H    -4.405747     1.276791    -3.024716
H    -5.087700     4.138405     0.071020
O    -5.521785     3.269868    -0.030545
H    -6.453843     3.383698    -0.308898
H     6.746446    -1.131272    -1.399804
O     5.988096    -0.989586    -0.827331
H     5.564533    -1.857381    -0.634078
H     4.619154    -3.130503    -2.486705
O     3.751035    -2.962241    -2.902397
H     3.753937    -3.582846    -3.657026
H     4.484429    -2.244081     5.603014
O     4.140729    -2.712860     6.394477
H     4.490052    -3.613183     6.314985
H    -0.755714     6.357445     5.063696
O    -1.353925     6.930832     5.602814
H    -1.373298     7.807253     5.160474
H     4.711509    -0.097850    -1.484121
O     3.943099     0.441010    -1.749198
H     3.250614    -0.162381    -2.074758
H    -0.762576     4.532980    -4.046636
O    -1.548729     5.071428    -4.253382
H    -1.401192     5.939332    -3.831886
H     0.650819     3.222485    -2.670323
O     0.654087     3.598094    -3.579515
H     0.702401     2.834012    -4.164066
H    -5.332929    -5.202344     1.810399
O    -4.634314    -5.793601     1.453171
H    -3.795087    -5.373089     1.721051
H     7.895439    -1.633917    -4.062448
O     7.641347    -1.321016    -3.161012
H     7.147711    -0.480284    -3.317936
H     3.727820    -5.039423    -5.303314
O     4.490943    -4.662518    -4.825516
H     4.879137    -5.371737    -4.280119
H    -3.751761     0.021523     4.940106
O    -4.353381     0.483197     5.573724
H    -5.008796    -0.178244     5.868705
H     3.513714    -5.907137    -0.528803
O     4.381477    -5.653037    -0.855011
H     4.452105    -4.690835    -0.708353
H     5.004902    -0.295710    -4.182632
O     4.474395    -1.011596    -4.570234
H     4.151284    -1.595040    -3.850859
H    -1.176496     1.578915    -3.941393
O    -1.831303     2.195528    -4.326047
H    -1.478207     2.528190    -5.173732
H     4.926599    -6.281725    -2.330450
O     5.262159    -6.603050    -3.196724
H     6.079536    -7.084801    -3.009745
H     8.773027    -5.035292    -2.951341
O     8.091461    -5.453899    -2.383011
H     8.122597    -6.411649    -2.486681
H     2.330708     4.750145     0.431858
O     1.753576     4.730516     1.204391
H     1.401758     3.808183     1.285313
H    -4.371006    -2.635144     4.241932
O    -5.267568    -2.300962     4.041654
H    -5.136703    -1.519567     3.465153
H    -5.808011    -3.207415     1.333154
O    -6.265900    -3.766045     2.003473
H    -6.076714    -3.328744     2.852991
H     1.706225     3.503374     6.846232
O     1.078858     4.015601     6.314070
H     0.296865     4.164465     6.887980
H     5.053371    -2.109607     3.594947
O     5.058548    -1.392572     4.259811
H     4.243504    -0.846366     4.102715
H     2.453546    -5.539513     4.831101
O     2.834840    -6.422294     4.568343
H     2.091559    -7.007643     4.400523
H     2.275319    -4.494603    -6.799210
O     2.113446    -4.982420    -5.981846
H     1.845435    -4.292017    -5.326705
H     6.438645    -4.080809    -0.534303
O     7.220115    -4.472935    -0.104520
H     7.665725    -4.908802    -0.863666
H    -1.708761     4.508008     7.694350
O    -0.809430     4.611694     8.077020
H    -0.633531     5.571746     8.099452
H    -5.150573     5.677280    -5.593703
O    -4.538769     4.917138    -5.615189
H    -3.784601     5.135041    -6.183875
H     3.284128    -2.502261    -8.451474
O     3.202546    -3.034288    -7.649087
H     4.080238    -3.004918    -7.223507
H    -0.698497     8.838493    -2.293946
O    -0.578142     9.668465    -1.776941
H     0.186600     9.498861    -1.202008
H     2.104549    -0.878698     5.199689
O     1.533181    -1.404310     5.788758
H     1.632319    -1.060375     6.685810
H     5.215094    -1.985731    -5.713891
O     5.566428    -2.750632    -6.234573
H     5.294930    -3.541676    -5.717160
H     5.756598    -5.160994     4.674216
O     5.229280    -5.075636     5.498170
H     4.515893    -5.716167     5.413205
H    -3.941704     1.151540     7.011592
O    -3.749759     1.629641     7.854140
H    -4.627070     2.010616     8.117315
H    -1.889303     9.622005    -0.758656
O    -2.747480     9.491484    -0.281371
H    -3.363411     10.116044    -0.668040
H    -5.966808     4.672012    -2.932194
O    -6.875833     4.547690    -3.273551
H    -6.783780     3.844727    -3.949791
H     0.144333    -7.047350    -1.141146
O     0.613906    -7.480483    -0.395415
H    -0.061275    -7.677546     0.256959
H    -7.648020     3.765785    -1.960737
O    -7.903905     3.178458    -1.219087
H    -7.756876     2.270063    -1.557720
H     4.017149    -0.845509     6.967649
O     4.018946     0.118886     6.957999
H     4.828740     0.412357     6.523976
H     2.239221     5.824820    -1.200596
O     3.177089     5.537669    -1.090099
H     3.353277     4.997123    -1.882897
H     6.598293    -5.879211     0.652328
O     6.231561    -6.622394     1.173840
H     5.332359    -6.343402     1.419762
H    -3.853374     4.736262     7.780567
O    -3.286618     4.275924     7.120017
H    -3.473774     3.331474     7.232710
H     5.819817    -7.898618     0.119682
O     5.536947    -8.586342    -0.520840
H     4.701563    -8.267850    -0.907495
H    -0.527464     2.066274     7.685645
O    -1.163158     1.998550     6.952934
H    -2.029189     1.851613     7.352750
H    -6.362214    -0.136077     1.076246
O    -6.685388    -0.222476     0.164579
H    -7.602542    -0.498260     0.186452
H    -5.341362    -3.075267    -0.573724
O    -5.090688    -2.370815     0.050094
H    -5.665638    -1.601318    -0.136282
H     4.303485     5.619943     0.292165
O     4.641188     5.723867     1.195545
H     3.945368     6.229898     1.650624
H    -9.025829    -1.778127    -2.228363
O    -8.476287    -1.572688    -1.444571
H    -8.597505    -2.309066    -0.805348
H    -5.544963     3.452464    -5.520921
O    -6.057065     2.739478    -5.103729
H    -5.386086     2.158244    -4.691143
H     3.182869    -0.860887    -5.671114
O     2.326402    -0.985872    -6.134215
H     2.414034    -1.835351    -6.606287
H     8.118770    -1.296689    -6.058786
O     8.132924    -2.159394    -5.599503
H     7.277993    -2.564090    -5.848704
H     7.610571     1.041134    -6.343067
O     7.425725     0.189853    -6.752021
H     6.444362     0.135200    -6.787228
H    -7.821748    -3.714975     0.953767
O    -8.502899    -3.612775     0.271348
H    -8.402531    -4.372629    -0.329407
H    -2.434451     8.743904     1.282739
O    -2.278099     8.157179     2.036010
H    -1.505598     7.607977     1.811617
H    -4.451517     6.434657     3.496318
O    -4.626854     6.858490     2.639717
H    -3.867152     7.448474     2.496969
H     3.386379     3.477540    -3.599780
O     3.228812     4.446081    -3.507674
H     2.263035     4.505617    -3.611350
H    -6.102484    -1.624374    -3.426797
O    -6.179592    -2.203174    -2.641946
H    -6.963470    -1.899572    -2.130900
H     6.483824     1.109443     4.716224
O     6.094076     1.651941     5.420762
H     6.279852     2.568290     5.123800
H     1.349302     1.740122    -5.835965
O     1.161326     1.144501    -5.079891
H     1.527302     0.282633    -5.349911
H    -2.455785     2.982212     10.481484
O    -2.239914     2.075244     10.209073
H    -2.838409     1.871468     9.478510
H     7.670434    -0.158177     3.166241
O     6.813233     0.257138     3.269417
H     6.217183    -0.470554     3.593485
H    -5.602426    -8.066914    -0.678272
O    -4.864970    -8.130843    -0.034371
H    -4.871346    -7.312967     0.486724
H    -5.176469    -0.134239    -4.704746
O    -5.790251    -0.849702    -4.941960
H    -6.631572    -0.412937    -5.137520
H     1.881842    -0.180085    -7.527676
O     1.675615     0.289690    -8.371521
H     2.251697    -0.113896    -9.026104
H     4.864850    -1.361762    -9.325186
O     3.937675    -1.138111    -9.604200
H     3.914538    -1.256916    -10.553076
H     7.436286    -2.529635     4.152569
O     7.302028    -2.527338     3.189536
H     7.019876    -3.451960     3.021624
H     6.764503    -5.904057     2.672866
O     6.838611    -5.209093     3.356844
H     7.737288    -5.249513     3.753755
H    -1.842289     8.961004     3.484546
O    -1.593317     9.268613     4.381505
H    -2.441305     9.396637     4.839783
H    -7.399976     1.539567    -5.235139
O    -7.969886     0.792576    -4.987349
H    -8.873528     1.187376    -4.908820
H     6.919849    -1.038872    -8.432363
O     6.341707    -1.764147    -8.692620
H     6.118594    -2.213591    -7.859186
H    -1.717525     6.241354    -7.031850
O    -2.109386     5.413931    -6.756124
H    -1.857567     5.286050    -5.792927
H     0.027768     3.341527     9.012567
O     0.230446     2.423283     9.268419
H    -0.564670     2.155290     9.777712
H     6.776443    -2.729609    -2.735575
O     6.255157    -3.474995    -2.384492
H     6.720335    -4.285437    -2.637218
H    -4.061655    -3.082957    -4.932445
O    -4.219212    -2.972405    -5.896997
H    -4.771358    -2.182672    -5.952398
H     2.012103     2.223133     8.449744
O     2.672204     2.339198     7.756791
H     3.099871     1.471404     7.640783
H    -6.868794    -5.221735    -1.372021
O    -7.783653    -5.496669    -1.614358
H    -7.922370    -5.095985    -2.497336
H    -3.821477     5.262341     5.696135
O    -3.794873     6.030153     5.104136
H    -2.862158     6.329568     5.194832
H    -7.876186     0.061778    -1.946785
O    -7.391745     0.787379    -2.363125
H    -7.623172     0.773680    -3.315534
H     5.853480     0.179266     0.389397
O     5.631580     0.903910     1.005249
H     6.139864     0.715058     1.820800
H    -6.193513     3.307015     7.405663
O    -6.060323     2.790809     8.234718
H    -6.656449     2.025914     8.149425
H     2.335885    -8.043893    -0.844002
O     3.008335    -8.028542    -1.544770
H     2.784367    -8.745627    -2.154659
H    -2.728238    -3.966230    -6.188878
O    -1.970222    -4.527508    -5.959172
H    -1.693127    -4.233591    -5.062970
H    -5.631141     3.757366     5.316517
O    -6.280645     4.151471     5.934907
H    -6.121527     5.096257     5.920203
H    -0.975647    -7.105640    -3.156238
O    -0.505003    -6.432088    -2.631268
H     0.400883    -6.358851    -3.014769
H     4.465971     2.064874     5.106172
O     3.522808     2.301893     4.987734
H     3.141264     2.315036     5.870859
H     4.121221     4.706322     6.275066
O     4.195201     5.436503     5.656094
H     3.626339     5.191417     4.887652
H     2.773666     3.656432     3.903888
O     2.590425     4.595321     3.736122
H     2.467163     4.691220     2.770115
H     9.326218     0.276088    -1.107140
O     8.638253     0.526510    -0.483392
H     8.384051    -0.315654    -0.074014
H    -2.079232     5.343652     10.644301
O    -2.797269     4.711777     10.878939
H    -3.013067     4.888797     11.794759
H     8.049479    -2.997786     0.403011
O     8.471329    -2.190163     0.773995
H     8.053722    -2.132800     1.662703
H     5.376488     3.717229     3.497607
O     6.036345     3.991284     4.156227
H     5.620075     4.704445     4.661929
H    -4.188547     5.033158     9.785782
O    -4.825098     5.179595     9.065850
H    -5.432555     4.427390     9.066465
H    -6.988137    -3.501456    -3.463505
O    -7.606818    -4.117202    -3.909125
H    -7.085731    -4.557521    -4.612342
H     0.045024     6.163158     10.756480
O    -0.821931     6.490199     10.511686
H    -0.711153     6.919742     9.644220
H     2.583227     1.522696    -4.122143
O     3.461437     1.878986    -3.887243
H     3.785256     1.367678    -3.116080
H    -6.932065    -0.226082     7.237048
O    -7.444203     0.549921     7.517918
H    -8.070439     0.728995     6.815419
H    -2.677413    -9.870166    -0.812585
O    -2.620109    -8.928597    -0.975082
H    -3.526944    -8.566460    -0.731225
H    -10.085530     3.034512    -4.875318
O    -10.196801     2.116838    -4.592929
H    -10.409778     2.201126    -3.642568
H    -2.020237    -3.009822     4.619440
O    -2.893103    -3.453891     4.692289
H    -2.886041    -4.073235     3.937390
H    -0.112280    -7.961229     2.490976
O     0.714265    -7.745820     2.936044
H     1.432756    -8.038282     2.347764
H     6.759390    -2.307586     6.364410
O     7.220582    -3.000204     5.886670
H     6.609738    -3.750625     5.856483
H    -5.223001    -2.001908     6.958126
O    -5.903785    -1.508334     6.475780
H    -5.888393    -1.886561     5.567119
H     0.812495     3.046053    -7.127374
O     1.731748     2.719943    -7.186386
H     1.719263     1.971560    -7.811155
H    -3.964072     8.764870     6.667231
O    -3.965766     8.761222     5.709859
H    -4.086613     7.832482     5.444154
H    -2.108203     10.318197    -2.751330
O    -3.011775     10.494417    -3.050585
H    -2.945838     11.127710    -3.764625
H     9.702571    -4.225147     3.861747
O     9.229552    -4.732300     4.553181
H     8.911598    -4.071303     5.181506
H    -0.706951    -5.990324    -5.835485
O     0.000772    -6.552800    -5.504110
H     0.833043    -6.087261    -5.724916
H     1.798730     8.305058     0.640337
O     1.490924     8.623907    -0.236824
H     2.303615     8.665564    -0.769937
H     3.476560     2.957399    -6.684343
O     4.307039     2.671858    -6.277377
H     4.065725     2.398769    -5.367288
H     3.706361     7.162105    -1.258935
O     3.906943     8.098422    -1.474738
H     4.272880     8.042988    -2.369355
H     4.384545     0.023120    -7.931936
O     4.765017     0.173073    -7.064566
H     4.577808     1.104167    -6.821550
H     6.033705     1.982244    -0.502650
O     6.600253     2.173722    -1.264755
H     7.424214     1.699772    -1.066581
H     6.739002    -8.377938    -1.623381
O     7.374636    -8.164392    -2.361069
H     7.740649    -8.998212    -2.651256
H    -5.273178    -5.804995    -5.387330
O    -5.894832    -5.136799    -5.701357
H    -5.348546    -4.365999    -5.940879
H     0.684864     7.207604     7.582538
O    -0.215606     7.231503     7.945012
H    -0.773931     7.241533     7.129445
H    -8.880524    -2.867428    -4.074291
O    -9.404753    -2.061433    -3.906437
H    -9.124246    -1.396015    -4.538485
H    -2.370073    -5.984975    -2.132163
O    -3.250330    -5.703424    -2.398888
H    -3.438591    -6.080815    -3.283157
H    -2.957723    -5.904417    -5.396979
O    -3.552812    -6.516601    -4.921970
H    -3.066091    -7.334051    -4.755320
H    -1.417614     3.728707    -6.989364
O    -0.872092     2.976172    -6.719859
H    -1.107618     2.189017    -7.267413
H    -0.218563     0.423478    -8.221947
O    -1.114733     0.654531    -7.935731
H    -1.284585     0.131236    -7.136416
H    -10.438011     4.013453    -2.711161
O    -10.499433     3.235167    -2.141847
H    -9.668219     3.213819    -1.635708
H     4.579557     4.127064     1.693180
O     4.374842     3.205061     1.970411
H     5.094814     2.632561     1.693259
H     6.479424     1.444724    -4.249468
O     6.185618     0.818968    -3.552474
H     6.212531     1.317154    -2.710555
H     9.675449    -2.191884    -1.139831
O     9.911607    -1.840703    -2.006202
H     9.044018    -1.600086    -2.407011
H     9.988984    -3.256786    -3.135799
O     9.725137    -3.907765    -3.810345
H     9.325678    -3.403160    -4.529835
H    -7.642988    -8.598290    -1.633357
O    -6.908815    -8.000274    -1.765649
H    -7.291248    -7.089227    -1.755615
H     4.130461     6.116649    -3.849966
O     4.788392     6.821326    -3.769053
H     5.627443     6.372384    -3.632999
H     0.138723    -8.158364    -5.209929
O     0.168665    -9.140842    -5.076734
H     0.317465    -9.505221    -5.949319
H    -2.280843    -8.670268    -2.701263
O    -2.051131    -8.406741    -3.612048
H    -1.402680    -9.022703    -3.971695
H     2.244009    -10.790785    -3.492283
O     2.194346    -9.836315    -3.471406
H     1.404903    -9.570661    -3.994172
H     6.817708     3.378897    -4.608933
O     6.877067     2.698708    -5.307768
H     6.081575     2.827398    -5.846800
H    -3.502067    -3.710297     7.732702
O    -3.624005    -2.924403     7.201500
H    -3.373577    -3.163209     6.282893
H    -0.627206    -3.355930    -6.723323
O    -0.000604    -2.621322    -6.734205
H    -0.485359    -1.847901    -6.392026
H     0.683995     0.496887     8.744259
O     0.692908    -0.218351     8.104319
H    -0.227753    -0.512900     8.020379
H    -5.872325     7.350569    -4.248725
O    -6.373689     6.728157    -4.807218
H    -6.654817     5.996614    -4.213926
H    -4.322965     9.095565    -3.268275
O    -4.853856     8.296595    -3.159212
H    -4.440581     7.820467    -2.420797
H    -9.742613     5.758504    -4.627885
O    -10.271030     4.951180    -4.461451
H    -11.153876     5.146910    -4.777244
H     2.769468     6.558855     6.115645
O     1.809134     6.650722     6.215991
H     1.470297     5.735133     6.116883
H     4.773417     8.592513     0.049107
O     5.094528     8.596817     0.968678
H     5.505582     7.734576     1.100209
H     4.183332    -7.391476    -4.350983
O     3.425694    -7.680817    -4.891312
H     3.149874    -8.522380    -4.513071
H     0.360297     8.687609     4.214455
O     1.040865     8.046551     3.984777
H     1.272745     7.555896     4.799372
H     5.217405     4.234846    -3.187703
O     6.179282     4.207645    -3.138826
H     6.393178     3.631215    -2.389113
H    -2.528723    -1.527658     7.578222
O    -2.022390    -0.731062     7.795106
H    -2.650228    -0.107921     8.170954
H    -9.068796     7.902771    -4.133649
O    -9.004917     7.317462    -4.889817
H    -8.047414     7.158361    -5.027872
H     3.597678    -8.940582     1.089175
O     2.917196    -8.311186     1.333047
H     3.387512    -7.503273     1.614730
H     3.561737     8.213787     1.799563
O     2.774709     7.646200     1.914716
H     2.329899     7.880270     2.742154
N     10.522607    -3.449434     2.345455
H     9.886772    -2.996773     1.755412
H     10.939021    -4.115970     1.791460
