603

H     0.203654     3.040706    -0.662406
O     0.727922     2.371331    -1.152824
H     1.666156     2.502093    -0.879710
H    -0.073940    -1.303242     3.160149
O     0.319124    -0.601328     2.618722
H    -0.160328     0.211078     2.852072
H    -2.394904     2.422326    -0.520082
O    -2.184092     1.949064     0.302634
H    -2.202060     1.001899     0.074557
H    -4.660219     0.553368     2.192022
O    -4.976306    -0.380344     2.204833
H    -4.473328    -0.856430     1.535913
H     0.067887    -0.300427     0.963437
O    -0.129621    -0.063051     0.036899
H     0.208812     0.834013    -0.083576
H    -0.153244    -3.574464     3.782953
O    -0.431851    -2.745133     4.205198
H     0.214051    -2.576649     4.907648
H    -4.883408     2.539475     1.344579
O    -4.244007     2.128140     1.958644
H    -3.401903     2.110591     1.444644
H    -3.241835     3.917002    -2.193405
O    -2.509137     3.312821    -1.963242
H    -2.148230     3.030973    -2.823853
H    -0.122039    -3.796264     0.508333
O     0.217792    -2.979748     0.928217
H    -0.569875    -2.493511     1.239628
H    -2.376282    -1.533328     2.477005
O    -2.185997    -1.997782     1.635692
H    -2.444650    -1.409930     0.906732
H     2.076546    -1.431935    -1.110946
O     2.307730    -1.686471    -0.193703
H     1.518202    -2.114886     0.188609
H    -1.391123     1.829631     1.925076
O    -1.479603     1.432083     2.801675
H    -1.464939     2.144215     3.466480
H     0.212352    -2.691236    -1.563031
O    -0.543529    -2.079909    -1.616494
H    -0.364344    -1.354066    -0.981971
H    -3.434024    -2.915321    -0.386631
O    -2.715947    -3.406921    -0.806625
H    -2.006238    -2.775622    -1.024607
H     2.773623     0.132133     2.946591
O     2.872880    -0.051487     3.908144
H     2.963466     0.840714     4.313961
H    -3.515180     6.389577    -0.521215
O    -3.228961     7.031545    -1.221614
H    -3.055061     7.887610    -0.780387
H     3.903595     0.589306     1.199973
O     2.952831     0.408838     1.315535
H     2.715068    -0.342373     0.734586
H    -5.777618     0.856321    -1.594344
O    -4.867280     1.182683    -1.465083
H    -4.978561     2.010982    -0.953316
H    -1.209899     5.405909     2.236913
O    -1.830861     4.658588     2.112444
H    -1.913073     4.234380     2.971899
H     3.496742     2.769201     0.444924
O     3.250639     2.732504    -0.494733
H     3.581052     1.890445    -0.848849
H     1.494742    -4.683463    -2.247190
O     1.559596    -3.907660    -1.672144
H     2.354041    -3.445648    -2.022475
H    -0.918791    -0.070673    -2.538528
O    -0.282158     0.580751    -2.859870
H    -0.023748     1.162502    -2.121940
H     1.702046    -4.676304    -0.175609
O     1.808666    -5.314769     0.565938
H     1.345182    -6.125271     0.268197
H    -1.222943    -3.250638    -2.875516
O    -1.048616    -3.933252    -3.536871
H    -0.922906    -4.780767    -3.068930
H    -2.778926     3.310764     4.719121
O    -1.797353     3.312078     4.686859
H    -1.505122     2.906059     5.521240
H     0.965061     5.036050     4.096745
O     0.019510     5.272257     4.147162
H    -0.455462     4.469604     4.402156
H    -1.727223    -4.640469    -0.369072
O    -0.962338    -5.182002    -0.084664
H    -1.310529    -5.870047     0.491773
H    -3.900253     5.850138    -2.578469
O    -4.260947     5.018965    -2.905526
H    -4.106532     4.983698    -3.873763
H    -2.428806    -3.683325     1.939591
O    -2.447411    -4.587973     2.314394
H    -1.507730    -4.826567     2.454446
H    -4.691664    -2.964559    -2.894993
O    -3.839045    -3.197078    -3.300977
H    -3.508647    -3.991473    -2.836815
H     0.340306     1.377651     4.628643
O     0.846055     2.139277     4.297654
H     0.893788     2.796133     5.006328
H    -4.651824    -5.157872    -1.570791
O    -5.353836    -4.805725    -0.996501
H    -5.140868    -5.161649    -0.112982
H     2.330335    -6.464498    -4.039905
O     1.993309    -6.137703    -3.185660
H     2.427541    -6.712928    -2.523574
H     0.471015    -3.362111    -4.000247
O     1.274115    -2.994788    -4.422306
H     0.954897    -2.621151    -5.270060
H     1.964628    -1.749634     2.990565
O     2.120446    -2.680113     2.772026
H     1.435018    -2.892837     2.104157
H    -3.011305    -1.792786    -3.202894
O    -2.588631    -0.906904    -3.135291
H    -3.243324    -0.259742    -3.454426
H    -3.188552     4.987152     1.092441
O    -3.964458     5.365668     0.633959
H    -4.391017     5.911758     1.340285
H     0.878336     2.258717     2.607542
O     0.981003     2.259305     1.636642
H     1.705818     1.634275     1.469942
H     0.191756     5.578262    -0.822958
O     0.707103     6.288753    -1.277647
H     0.862608     7.016291    -0.638119
H     0.295320     6.908439     2.709599
O    -0.012290     6.603289     1.838721
H     0.644745     5.914747     1.594025
H    -2.478885     0.219043     3.351950
O    -2.700639    -0.595671     3.855728
H    -1.940026    -0.636663     4.477072
H    -0.893388     0.552243     6.037838
O    -0.618612     0.035374     5.262073
H     0.094267    -0.569532     5.547437
H     0.711177    -4.988799     1.982551
O     0.169123    -5.099738     2.786985
H     0.313495    -6.020950     3.057198
H    -2.116570    -8.079769     0.443689
O    -1.794455    -7.593509     1.230081
H    -2.580971    -7.282838     1.686156
H    -0.319858     6.985074    -2.422297
O    -1.090691     7.345610    -2.918557
H    -1.831995     7.185118    -2.292569
H    -1.108763     4.323873     0.584557
O    -0.735908     4.382189    -0.311565
H    -1.444984     4.140767    -0.942496
H    -4.407459     2.750902     3.521678
O    -4.404601     2.919566     4.486777
H    -4.489214     2.035804     4.894131
H     2.024429    -3.581610     4.249620
O     1.960478    -4.055249     5.102085
H     2.467438    -3.519774     5.733756
H     4.689766    -3.187554     0.845853
O     4.529729    -3.109857    -0.120491
H     3.670715    -2.632540    -0.203328
H    -2.719924    -0.735575    -1.342610
O    -3.047687    -0.467590    -0.467611
H    -3.847888     0.059110    -0.674198
H    -1.612671    -0.742148    -4.621976
O    -1.104443    -0.526126    -5.424997
H    -0.395948     0.071427    -5.138793
H     1.798723    -1.699049    -3.368222
O     1.891016    -0.953876    -2.743165
H     1.113517    -0.376356    -2.873306
H     3.664180    -3.118261     2.557185
O     4.623295    -3.347116     2.484304
H     4.677653    -4.307627     2.608754
H     3.427073    -6.118430     3.124233
O     3.783141    -5.915683     2.224649
H     3.045705    -5.569433     1.681963
H    -3.339706     1.628768    -4.164524
O    -4.183389     1.155581    -3.974080
H    -4.401968     1.302013    -3.018020
H    -5.077100     4.159700     0.077801
O    -5.517339     3.293499    -0.018515
H    -6.447122     3.412537    -0.302845
H     6.736338    -1.171166    -1.352174
O     5.964362    -1.022357    -0.799739
H     5.545047    -1.890424    -0.604147
H     4.596686    -3.155932    -2.463943
O     3.728869    -2.983704    -2.879548
H     3.732074    -3.600771    -3.637088
H     4.434967    -2.295890     5.630355
O     4.092084    -2.762516     6.422887
H     4.426568    -3.667575     6.339454
H    -0.752882     6.338509     5.092786
O    -1.347776     6.920248     5.627246
H    -1.369607     7.788949     5.172594
H     4.700546    -0.124614    -1.454049
O     3.933302     0.418703    -1.715169
H     3.240870    -0.180937    -2.047375
H    -0.738498     4.542661    -4.017711
O    -1.524388     5.081908    -4.218992
H    -1.366843     5.951972    -3.802067
H     0.664232     3.216329    -2.641400
O     0.676092     3.595259    -3.548280
H     0.718578     2.833810    -4.136571
H    -5.382132    -5.187267     1.794443
O    -4.685355    -5.781720     1.438841
H    -3.844964    -5.365963     1.710070
H     7.884243    -1.674710    -4.023902
O     7.626449    -1.363003    -3.123636
H     7.139599    -0.518877    -3.278855
H     3.703864    -5.053188    -5.287684
O     4.466573    -4.681305    -4.805710
H     4.850435    -5.393657    -4.261329
H    -3.783618     0.019385     4.945046
O    -4.383919     0.482422     5.578980
H    -5.044668    -0.175997     5.868934
H     3.465599    -5.932742    -0.518533
O     4.338723    -5.685471    -0.835228
H     4.415051    -4.723339    -0.690378
H     5.003612    -0.319523    -4.148571
O     4.468750    -1.030433    -4.539782
H     4.141924    -1.614761    -3.823105
H    -1.167922     1.589355    -3.924032
O    -1.819281     2.209679    -4.307743
H    -1.462107     2.545713    -5.152590
H     4.886572    -6.309696    -2.314329
O     5.219652    -6.633056    -3.180466
H     6.037372    -7.114708    -2.994401
H     8.742159    -5.079169    -2.914960
O     8.050817    -5.497916    -2.357462
H     8.085268    -6.455019    -2.461515
H     2.335144     4.728504     0.469513
O     1.761225     4.713460     1.244911
H     1.402372     3.793275     1.322038
H    -4.415079    -2.632154     4.236866
O    -5.308904    -2.291749     4.035386
H    -5.171688    -1.510029     3.460654
H    -5.844677    -3.188515     1.321497
O    -6.307373    -3.746758     1.989047
H    -6.119489    -3.312422     2.840227
H     1.687159     3.467065     6.879266
O     1.064325     3.985073     6.347532
H     0.280719     4.134485     6.919267
H     5.001125    -2.168229     3.625039
O     5.021552    -1.450911     4.290324
H     4.209923    -0.894288     4.134190
H     2.390057    -5.577146     4.840252
O     2.770362    -6.460429     4.578964
H     2.025488    -7.041603     4.402953
H     2.259703    -4.494926    -6.786930
O     2.090786    -4.984638    -5.972042
H     1.825574    -4.294461    -5.315643
H     6.441182    -4.094561    -0.498574
O     7.194230    -4.498558    -0.035822
H     7.701505    -4.920180    -0.757286
H    -1.725771     4.484441     7.720577
O    -0.826445     4.584895     8.104950
H    -0.648564     5.544228     8.130848
H    -5.114668     5.713942    -5.573999
O    -4.508093     4.949345    -5.597602
H    -3.749290     5.167267    -6.160442
H     3.284510    -2.503485    -8.429580
O     3.197109    -3.037890    -7.629377
H     4.073599    -3.014017    -7.200392
H    -0.845292     9.069069    -3.238515
O    -0.805964     10.051817    -3.313631
H    -0.344597     10.328252    -2.507208
H     2.066598    -0.913092     5.221592
O     1.493613    -1.439649     5.808213
H     1.587625    -1.096010     6.706000
H     5.208583    -2.005482    -5.684430
O     5.555224    -2.770845    -6.207490
H     5.280725    -3.561686    -5.691671
H     5.694880    -5.215340     4.689095
O     5.172620    -5.131537     5.515901
H     4.451143    -5.763444     5.429301
H    -3.973989     1.144033     7.019347
O    -3.781778     1.618941     7.863816
H    -4.658109     2.003655     8.125387
H    -1.671913     9.850460    -0.358991
O    -2.606731     9.555860    -0.307744
H    -3.062342     10.093027    -0.985465
H    -5.943749     4.707576    -2.920518
O    -6.853096     4.583986    -3.261420
H    -6.762226     3.885403    -3.942103
H     0.095829    -7.053480    -1.144684
O     0.559822    -7.490676    -0.397500
H    -0.119669    -7.686645     0.250695
H    -7.633979     3.804954    -1.955935
O    -7.896242     3.216033    -1.217260
H    -7.753311     2.308431    -1.559295
H     3.971972    -0.896002     6.997485
O     3.981320     0.068203     6.990238
H     4.793838     0.358007     6.559007
H     2.248644     5.815718    -1.167238
O     3.182240     5.517967    -1.044490
H     3.363813     4.977555    -1.837564
H     6.551143    -5.923203     0.673812
O     6.182366    -6.660190     1.206486
H     5.277753    -6.383306     1.433330
H    -3.868290     4.725266     7.800092
O    -3.300399     4.263943     7.141037
H    -3.494585     3.320256     7.248682
H     5.762435    -7.938070     0.136333
O     5.474578    -8.624259    -0.502146
H     4.645536    -8.297994    -0.896122
H    -0.557840     2.037723     7.707875
O    -1.190753     1.976986     6.972279
H    -2.059337     1.833043     7.367856
H    -6.383153    -0.112851     1.073175
O    -6.701216    -0.196551     0.159705
H    -7.620463    -0.465788     0.175222
H    -5.370705    -3.052820    -0.583222
O    -5.118541    -2.352253     0.044387
H    -5.688261    -1.578697    -0.141890
H     4.318478     5.579361     0.337396
O     4.686967     5.663667     1.230431
H     4.010388     6.156336     1.726621
H    -9.042277    -1.731301    -2.246235
O    -8.494745    -1.531404    -1.459532
H    -8.622241    -2.269242    -0.823406
H    -5.521652     3.492688    -5.510380
O    -6.038490     2.779083    -5.099230
H    -5.371577     2.193769    -4.686578
H     3.182773    -0.869886    -5.645020
O     2.326923    -0.989297    -6.110900
H     2.412277    -1.837340    -6.585958
H     8.116618    -1.330817    -6.018761
O     8.124818    -2.195559    -5.563688
H     7.268569    -2.595013    -5.815128
H     7.622802     1.010494    -6.296041
O     7.434124     0.162560    -6.710111
H     6.452717     0.112846    -6.747177
H    -7.859489    -3.684830     0.934046
O    -8.538245    -3.577065     0.250183
H    -8.439608    -4.335057    -0.353232
H    -2.525371     8.781349     1.326110
O    -2.336926     8.151998     2.039892
H    -1.612726     7.575969     1.744428
H    -4.448415     6.432831     3.523188
O    -4.631133     6.854754     2.667382
H    -3.875870     7.446193     2.514302
H     3.403611     3.462426    -3.556307
O     3.250961     4.431460    -3.458347
H     2.286461     4.496848    -3.572146
H    -6.113899    -1.589534    -3.434494
O    -6.197196    -2.170548    -2.651706
H    -6.980885    -1.863738    -2.142452
H     6.467713     1.049284     4.754168
O     6.073873     1.587618     5.457623
H     6.262685     2.506427     5.167958
H     1.363608     1.741864    -5.808068
O     1.170517     1.144626    -5.054278
H     1.532891     0.281883    -5.326251
H    -2.490623     2.955560     10.499933
O    -2.277674     2.048756     10.224777
H    -2.875363     1.849988     9.492095
H     7.627510    -0.496047     3.095666
O     6.877844     0.079693     3.265966
H     6.185248    -0.521371     3.643797
H    -5.658669    -8.043027    -0.703724
O    -4.923894    -8.112868    -0.057295
H    -4.927668    -7.296348     0.465885
H    -5.175525    -0.100902    -4.704663
O    -5.792791    -0.812258    -4.945413
H    -6.630586    -0.369757    -5.143343
H     1.891929    -0.176193    -7.503884
O     1.691081     0.296801    -8.347145
H     2.267550    -0.107827    -9.000740
H     4.874684    -1.368914    -9.294459
O     3.949469    -1.139855    -9.576043
H     3.929169    -1.254997    -10.525408
H     7.563699    -2.570638     4.208400
O     7.710482    -2.604526     3.248830
H     7.217514    -3.395078     2.975332
H     6.720178    -5.891269     2.687035
O     6.782149    -5.217424     3.389522
H     7.657945    -5.303720     3.807200
H    -1.842430     8.936313     3.465753
O    -1.580028     9.244224     4.358759
H    -2.420828     9.378716     4.828484
H    -7.387649     1.587296    -5.237667
O    -7.962621     0.842714    -4.993859
H    -8.864361     1.242323    -4.917626
H     6.928243    -1.059794    -8.393680
O     6.346860    -1.780853    -8.658542
H     6.118547    -2.231757    -7.827282
H    -1.680829     6.268638    -6.993514
O    -2.068384     5.436562    -6.725197
H    -1.824029     5.307898    -5.759963
H     0.000058     3.306728     9.040413
O     0.197278     2.386785     9.294324
H    -0.601413     2.121361     9.799622
H     6.757271    -2.766565    -2.697474
O     6.226935    -3.511282    -2.357298
H     6.694796    -4.321816    -2.605862
H    -4.076174    -3.054212    -4.937605
O    -4.230247    -2.940526    -5.902273
H    -4.777038    -2.147050    -5.957607
H     1.978499     2.179947     8.480290
O     2.642521     2.293512     7.790536
H     3.064834     1.423393     7.674228
H    -6.907059    -5.188890    -1.393278
O    -7.822489    -5.458298    -1.639475
H    -7.955914    -5.054107    -2.521782
H    -3.827758     5.255765     5.718115
O    -3.794220     6.026622     5.130433
H    -2.860395     6.319544     5.224280
H    -7.883992     0.101370    -1.956634
O    -7.393102     0.825149    -2.368303
H    -7.621279     0.816993    -3.321689
H     5.838130     0.138012     0.424377
O     5.616496     0.857601     1.047716
H     6.127204     0.659993     1.859780
H    -6.214329     3.310271     7.413217
O    -6.086887     2.790948     8.241199
H    -6.687102     2.029695     8.151328
H     2.277068    -8.062888    -0.844872
O     2.954913    -8.049656    -1.540296
H     2.730015    -8.762420    -2.154939
H    -2.743420    -3.941063    -6.192322
O    -1.990075    -4.508061    -5.961236
H    -1.713656    -4.217580    -5.063777
H    -5.642521     3.764086     5.326013
O    -6.290534     4.159355     5.945128
H    -6.131433     5.104071     5.928660
H    -1.018038    -7.099368    -3.162848
O    -0.545373    -6.430752    -2.633359
H     0.361834    -6.360340    -3.014648
H     4.444612     2.017537     5.144789
O     3.503250     2.258506     5.025756
H     3.118805     2.270880     5.907625
H     4.110918     4.659739     6.319356
O     4.187700     5.391986     5.703207
H     3.621319     5.149314     4.931660
H     2.765574     3.619227     3.943298
O     2.587574     4.559534     3.778343
H     2.470981     4.660276     2.811900
H     9.394217     0.220518    -1.058438
O     8.589013     0.383351    -0.563499
H     8.412511    -0.436662    -0.072567
H    -2.101886     5.315017     10.671271
O    -2.823596     4.686008     10.901461
H    -3.042255     4.861382     11.816922
H     7.973300    -3.001958     0.335005
O     8.394660    -2.155862     0.591785
H     8.328715    -2.152713     1.554075
H     5.372524     3.667223     3.543498
O     6.027442     3.933870     4.211000
H     5.613326     4.650774     4.712788
H    -4.209972     5.018169     9.804416
O    -4.842121     5.170950     9.082015
H    -5.454752     4.422916     9.077791
H    -7.009968    -3.461574    -3.479947
O    -7.630220    -4.073332    -3.928949
H    -7.109152    -4.513882    -4.632082
H     0.027328     6.123998     10.791847
O    -0.837111     6.455965     10.544830
H    -0.721568     6.888081     9.679468
H     2.590681     1.514135    -4.091626
O     3.469317     1.865669    -3.851094
H     3.788596     1.348416    -3.081830
H    -6.972480    -0.217826     7.230861
O    -7.480555     0.560609     7.512396
H    -8.104272     0.744758     6.808952
H    -2.743379    -9.861719    -0.833872
O    -2.679855    -8.919830    -0.992100
H    -3.585739    -8.553468    -0.751007
H    -10.066821     3.094460    -4.882966
O    -10.184580     2.176689    -4.603330
H    -10.399658     2.259969    -3.653356
H    -2.068130    -3.020836     4.621111
O    -2.943068    -3.460916     4.690396
H    -2.937221    -4.077339     3.932902
H    -0.178644    -7.976414     2.484870
O     0.647732    -7.766827     2.933201
H     1.365991    -8.061828     2.345912
H     6.704782    -2.377725     6.401831
O     7.154560    -3.086656     5.937334
H     6.524567    -3.821410     5.897288
H    -5.272444    -2.002240     6.952220
O    -5.948575    -1.503043     6.469215
H    -5.932461    -1.878490     5.559296
H     0.839344     3.056077    -7.096443
O     1.756407     2.723020    -7.152894
H     1.741248     1.977960    -7.781401
H    -3.944551     8.771300     6.688033
O    -3.929525     8.763586     5.730856
H    -4.070073     7.837426     5.466584
H    -2.385709     10.459132    -3.071673
O    -3.331138     10.583621    -2.764263
H    -3.649644     11.398690    -3.156598
H     9.410137    -4.060066     4.050801
O     9.130525    -4.738882     4.672678
H     8.700809    -4.267448     5.397284
H    -0.734363    -5.977484    -5.838013
O    -0.030919    -6.544665    -5.505511
H     0.804595    -6.082835    -5.722534
H     2.006898     8.201779     0.791344
O     1.681678     8.497897    -0.093946
H     2.485103     8.507359    -0.659390
H     3.500214     2.950389    -6.645745
O     4.327816     2.659660    -6.236492
H     4.081880     2.384715    -5.328215
H     3.810728     7.004054    -1.196011
O     4.037003     7.950347    -1.371044
H     4.416872     7.906253    -2.265831
H     4.396339     0.015020    -7.899194
O     4.774125     0.160243    -7.029881
H     4.591852     1.091761    -6.784914
H     6.031813     1.943594    -0.460176
O     6.597481     2.137443    -1.221423
H     7.421661     1.656831    -1.028138
H     6.683016    -8.420796    -1.607428
O     7.319024    -8.209225    -2.343680
H     7.683951    -9.043350    -2.634164
H    -5.300714    -5.768436    -5.405087
O    -5.917958    -5.096077    -5.718906
H    -5.366870    -4.327336    -5.954248
H     0.681321     7.172558     7.622520
O    -0.220884     7.204710     7.980078
H    -0.775092     7.221414     7.162422
H    -8.896619    -2.815737    -4.095166
O    -9.417276    -2.007741    -3.925970
H    -9.131356    -1.341390    -4.554641
H    -2.409725    -5.974324    -2.141070
O    -3.288027    -5.687772    -2.408854
H    -3.475243    -6.060443    -3.295466
H    -2.986475    -5.879979    -5.406791
O    -3.586155    -6.490712    -4.935420
H    -3.104215    -7.311284    -4.770476
H    -1.383663     3.753915    -6.960660
O    -0.846417     2.993858    -6.694144
H    -1.087137     2.212409    -7.246706
H    -0.202841     0.441547    -8.203433
O    -1.099056     0.675784    -7.920077
H    -1.273905     0.151902    -7.122376
H    -10.421729     4.068759    -2.717361
O    -10.488893     3.289641    -2.149695
H    -9.659018     3.263020    -1.641594
H     4.593853     4.078194     1.732837
O     4.377044     3.162048     2.021618
H     5.085995     2.578013     1.739350
H     6.486561     1.414396    -4.205414
O     6.184006     0.789238    -3.512127
H     6.214703     1.283573    -2.667732
H     9.633386    -2.216514    -0.921012
O     9.910238    -2.000002    -1.820213
H     9.109758    -1.661020    -2.263303
H     9.969733    -3.307662    -3.091803
O     9.702493    -3.958677    -3.767614
H     9.308822    -3.449970    -4.487139
H    -7.698967    -8.560248    -1.667578
O    -6.960854    -7.966005    -1.794770
H    -7.338246    -7.052812    -1.783869
H     4.161283     6.100279    -3.800825
O     4.824796     6.798304    -3.708836
H     5.660385     6.340822    -3.579760
H     0.097256    -8.151511    -5.216729
O     0.121102    -9.134701    -5.086598
H     0.271159    -9.496889    -5.959889
H    -2.333081    -8.658443    -2.717433
O    -2.099131    -8.393255    -3.626532
H    -1.452717    -9.011298    -3.986352
H     2.182499    -10.800820    -3.501622
O     2.136572    -9.846324    -3.475409
H     1.351374    -9.574364    -4.001405
H     6.836544     3.348240    -4.557633
O     6.894721     2.670729    -5.259005
H     6.101200     2.804245    -5.799704
H    -3.565284    -3.722823     7.726976
O    -3.678229    -2.933748     7.198526
H    -3.427524    -3.171488     6.279658
H    -0.637238    -3.340658    -6.717971
O    -0.006147    -2.609993    -6.723789
H    -0.487424    -1.834398    -6.381598
H     0.641103     0.458152     8.766563
O     0.648719    -0.254284     8.123441
H    -0.273330    -0.543768     8.035511
H    -5.830272     7.382363    -4.238369
O    -6.340218     6.764625    -4.795790
H    -6.623658     6.036387    -4.200804
H    -4.338558     9.131933    -3.197363
O    -4.817093     8.292417    -3.146767
H    -4.413971     7.831077    -2.395193
H    -9.709790     5.815650    -4.624511
O    -10.244245     5.010994    -4.462819
H    -11.124002     5.213332    -4.782963
H     2.767107     6.515682     6.161408
O     1.807070     6.613415     6.261187
H     1.463471     5.699833     6.157397
H     4.815690     8.550117     0.142952
O     5.132571     8.542685     1.063849
H     5.554274     7.682494     1.173524
H     4.142598    -7.409168    -4.342368
O     3.384722    -7.693050    -4.885399
H     3.104074    -8.534470    -4.510587
H     0.348971     8.664089     4.266295
O     1.051720     8.040517     4.054175
H     1.262409     7.539184     4.868647
H     5.236080     4.206386    -3.139767
O     6.197567     4.177826    -3.085709
H     6.406389     3.594091    -2.339651
H    -2.577220    -1.544526     7.582651
O    -2.067486    -0.751211     7.803987
H    -2.693895    -0.126117     8.179084
H    -9.025392     7.955849    -4.124062
O    -8.963872     7.370171    -4.880121
H    -8.006339     7.206277    -5.016479
H     3.529903    -8.971433     1.087556
O     2.853396    -8.340386     1.338695
H     3.328054    -7.535456     1.619567
H     3.737743     8.180476     2.022292
O     2.937391     7.619242     2.124145
H     2.494231     7.855059     2.953411
N    -0.014976     10.444313    -0.515407
H     0.670872     9.760949    -0.276630
H     0.211623     11.223845    -0.001851
