603

H     0.208417     3.024706    -0.679282
O     0.732618     2.358416    -1.173780
H     1.671092     2.488411    -0.900142
H    -0.057849    -1.318567     3.145046
O     0.333359    -0.616183     2.602691
H    -0.147039     0.195521     2.836485
H    -2.389649     2.399060    -0.536078
O    -2.177185     1.928090     0.287169
H    -2.192485     0.980338     0.061125
H    -4.648761     0.528461     2.180717
O    -4.964329    -0.405325     2.192946
H    -4.459103    -0.881670     1.525868
H     0.078934    -0.317387     0.947731
O    -0.118822    -0.079503     0.021242
H     0.218073     0.818105    -0.098000
H    -0.132631    -3.590544     3.769516
O    -0.411386    -2.760405     4.190764
H     0.234148    -2.590730     4.893090
H    -4.876609     2.512568     1.331324
O    -4.235821     2.104040     1.945360
H    -3.393529     2.088045     1.431809
H    -3.243516     3.886887    -2.209806
O    -2.504312     3.291510    -1.979948
H    -2.146141     3.004821    -2.840129
H    -0.103022    -3.814271     0.496601
O     0.235807    -2.994900     0.913235
H    -0.552687    -2.511415     1.226401
H    -2.360311    -1.553250     2.464890
O    -2.170107    -2.017229     1.623376
H    -2.430267    -1.430196     0.894534
H     2.088193    -1.446754    -1.127439
O     2.322141    -1.700018    -0.210722
H     1.533834    -2.130011     0.173291
H    -1.379860     1.812221     1.910360
O    -1.469655     1.413607     2.786164
H    -1.456600     2.125210     3.451875
H     0.225012    -2.709727    -1.576724
O    -0.530119    -2.097378    -1.631508
H    -0.352056    -1.372897    -0.995430
H    -3.418349    -2.938090    -0.396820
O    -2.701131    -3.428177    -0.819642
H    -1.991168    -2.796948    -1.036247
H     2.787038     0.122299     2.928496
O     2.888905    -0.060771     3.889833
H     2.977226     0.832033     4.295280
H    -3.527919     6.366785    -0.538337
O    -3.291058     7.030770    -1.237808
H    -3.150719     7.875482    -0.766451
H     3.914363     0.581718     1.180067
O     2.964490     0.397791     1.296716
H     2.727919    -0.354431     0.716581
H    -5.770372     0.826272    -1.604786
O    -4.860524     1.155445    -1.479056
H    -4.972758     1.982910    -0.966300
H    -1.207267     5.384856     2.212921
O    -1.830747     4.636651     2.095586
H    -1.907566     4.216722     2.957576
H     3.501668     2.760897     0.422541
O     3.254209     2.719131    -0.516740
H     3.587267     1.877200    -0.868257
H     1.510042    -4.701202    -2.257611
O     1.574286    -3.921249    -1.688364
H     2.367360    -3.459548    -2.040201
H    -0.909347    -0.092159    -2.552307
O    -0.276843     0.562329    -2.875862
H    -0.017500     1.144069    -2.138183
H     1.720045    -4.692629    -0.186841
O     1.835380    -5.330246     0.552512
H     1.372889    -6.144848     0.255250
H    -1.209454    -3.272761    -2.887183
O    -1.033360    -3.952760    -3.550523
H    -0.906462    -4.802088    -3.084294
H    -2.770912     3.290708     4.705435
O    -1.789612     3.290369     4.671082
H    -1.495715     2.887748     5.506534
H     0.968160     5.023986     4.076999
O     0.021759     5.254538     4.129983
H    -0.448809     4.450214     4.386972
H    -1.709923    -4.662279    -0.378948
O    -0.941485    -5.197482    -0.094228
H    -1.283514    -5.891503     0.479281
H    -3.916610     5.820518    -2.593756
O    -4.266125     4.986208    -2.924256
H    -4.111729     4.952621    -3.892559
H    -2.408548    -3.704354     1.928873
O    -2.426057    -4.607783     2.305866
H    -1.485625    -4.846807     2.442927
H    -4.678032    -2.993011    -2.903796
O    -3.825688    -3.223248    -3.311434
H    -3.492584    -4.017017    -2.847393
H     0.352566     1.364619     4.611768
O     0.857733     2.125830     4.279024
H     0.904735     2.784304     4.986436
H    -4.633316    -5.184248    -1.578534
O    -5.335755    -4.832618    -1.004155
H    -5.121108    -5.187870    -0.120562
H     2.351879    -6.489321    -4.040844
O     2.017890    -6.161601    -3.185610
H     2.444658    -6.736328    -2.521548
H     0.483882    -3.381834    -4.013426
O     1.285932    -3.013142    -4.437413
H     0.964173    -2.641229    -5.284873
H     1.980867    -1.760353     2.973855
O     2.140467    -2.690096     2.755110
H     1.453773    -2.906590     2.089342
H    -3.000048    -1.818946    -3.214357
O    -2.579713    -0.931394    -3.149170
H    -3.237053    -0.287062    -3.467289
H    -3.185922     4.960993     1.082905
O    -3.968399     5.333866     0.629306
H    -4.384305     5.889881     1.336440
H     0.886274     2.244417     2.588835
O     0.987138     2.241599     1.617595
H     1.714591     1.619341     1.452218
H     0.192368     5.650398    -0.756406
O     0.712686     6.313901    -1.264607
H     0.853233     7.113314    -0.707975
H     0.344891     7.026109     2.594389
O    -0.016984     6.646097     1.776704
H     0.647869     5.976780     1.514157
H    -2.465439     0.199576     3.338442
O    -2.685732    -0.615057     3.842934
H    -1.924513    -0.654721     4.463601
H    -0.878211     0.537525     6.022291
O    -0.603214     0.020166     5.246851
H     0.110798    -0.583150     5.532282
H     0.733179    -5.004955     1.969384
O     0.192825    -5.115420     2.774914
H     0.336626    -6.039739     3.040192
H    -2.088174    -8.099394     0.435150
O    -1.771894    -7.607967     1.219957
H    -2.560332    -7.303671     1.676480
H    -0.380652     6.858227    -2.321629
O    -1.128176     7.277538    -2.819730
H    -1.917565     7.148856    -2.255750
H    -1.108132     4.299331     0.575108
O    -0.735901     4.362456    -0.321127
H    -1.442414     4.119539    -0.953340
H    -4.399342     2.727760     3.508614
O    -4.397441     2.897098     4.473424
H    -4.478951     2.013332     4.881471
H     2.045758    -3.592197     4.233872
O     1.986369    -4.065907     5.086518
H     2.488506    -3.526571     5.718265
H     4.705379    -3.195785     0.828554
O     4.546625    -3.118970    -0.138171
H     3.685792    -2.644101    -0.221261
H    -2.709123    -0.759610    -1.355335
O    -3.036156    -0.490037    -0.480623
H    -3.838256     0.033579    -0.686516
H    -1.605621    -0.766615    -4.635862
O    -1.099438    -0.548240    -5.439741
H    -0.390699     0.048989    -5.153688
H     1.807880    -1.715920    -3.384406
O     1.900906    -0.968824    -2.761624
H     1.121451    -0.393839    -2.890080
H     3.683155    -3.125091     2.539800
O     4.642145    -3.356469     2.466702
H     4.691862    -4.317762     2.588585
H     3.427969    -6.100957     3.129909
O     3.780278    -5.896965     2.224791
H     3.028229    -5.550598     1.695583
H    -3.336635     1.602302    -4.178113
O    -4.180885     1.130507    -3.987743
H    -4.397809     1.273937    -3.030575
H    -5.077333     4.130984     0.069986
O    -5.514296     3.264239    -0.033853
H    -6.445137     3.381817    -0.314893
H     6.747434    -1.176918    -1.373953
O     5.976894    -1.029671    -0.819221
H     5.557782    -1.897848    -0.623577
H     4.611007    -3.165555    -2.481615
O     3.743482    -2.995164    -2.897699
H     3.745963    -3.613284    -3.654285
H     4.456382    -2.299872     5.611114
O     4.117469    -2.765669     6.405696
H     4.449641    -3.671299     6.322083
H    -0.749283     6.323059     5.078578
O    -1.346466     6.897315     5.617815
H    -1.361986     7.774767     5.177201
H     4.710121    -0.134833    -1.473873
O     3.942125     0.406631    -1.735970
H     3.249918    -0.194480    -2.066066
H    -0.740792     4.519036    -4.035972
O    -1.524400     5.061087    -4.243178
H    -1.374384     5.927452    -3.819593
H     0.664558     3.200315    -2.659338
O     0.671000     3.578149    -3.567464
H     0.718611     2.815295    -4.153737
H    -5.360344    -5.212340     1.787858
O    -4.663277    -5.804841     1.430371
H    -3.822549    -5.389331     1.701458
H     7.893716    -1.679732    -4.046296
O     7.636367    -1.368648    -3.145620
H     7.147886    -0.525093    -3.300525
H     3.717038    -5.065802    -5.304118
O     4.481152    -4.693972    -4.823455
H     4.863827    -5.406198    -4.278611
H    -3.768369    -0.001402     4.932913
O    -4.369245     0.460946     5.566835
H    -5.028210    -0.198726     5.858047
H     3.487367    -5.943438    -0.537138
O     4.363588    -5.696040    -0.847427
H     4.433571    -4.732656    -0.707274
H     5.010239    -0.329989    -4.169116
O     4.477044    -1.042515    -4.559644
H     4.151061    -1.626579    -3.842275
H    -1.165708     1.566217    -3.938409
O    -1.817086     2.186660    -4.322873
H    -1.460835     2.519406    -5.169235
H     4.908803    -6.317721    -2.327030
O     5.237910    -6.642352    -3.194868
H     6.070717    -7.102246    -3.028160
H     8.762361    -5.070824    -2.932861
O     8.075483    -5.496507    -2.373714
H     8.113312    -6.450847    -2.497532
H     2.342485     4.715400     0.450627
O     1.764282     4.695626     1.222509
H     1.408275     3.774645     1.299431
H    -4.395409    -2.654807     4.226951
O    -5.290122    -2.315869     4.026351
H    -5.154972    -1.534370     3.451014
H    -5.827306    -3.214759     1.313541
O    -6.289659    -3.772395     1.981636
H    -6.100461    -3.338159     2.832553
H     1.697557     3.456403     6.860740
O     1.073448     3.971538     6.327897
H     0.290486     4.122515     6.900124
H     5.018337    -2.173026     3.605405
O     5.040107    -1.455023     4.269522
H     4.226722    -0.899558     4.115074
H     2.418275    -5.590046     4.820476
O     2.801261    -6.472001     4.560108
H     2.055365    -7.052455     4.382679
H     2.271696    -4.513192    -6.801253
O     2.107144    -5.002097    -5.985059
H     1.838647    -4.312310    -5.329423
H     6.458100    -4.099849    -0.514637
O     7.209267    -4.508608    -0.052209
H     7.720295    -4.922162    -0.776072
H    -1.715257     4.470820     7.702801
O    -0.816236     4.570374     8.087599
H    -0.637229     5.529851     8.112781
H    -5.120548     5.683024    -5.591138
O    -4.511452     4.920772    -5.612630
H    -3.755098     5.137082    -6.179048
H     3.291196    -2.520650    -8.446957
O     3.205614    -3.054373    -7.646152
H     4.082361    -3.028804    -7.218091
H    -0.665361     8.820525    -2.272985
O    -0.543251     9.648888    -1.753680
H     0.219635     9.475211    -1.177537
H     2.084054    -0.921913     5.204582
O     1.513708    -1.450019     5.792301
H     1.606523    -1.104538     6.689545
H     5.217125    -2.016915    -5.703813
O     5.565500    -2.782003    -6.226275
H     5.291672    -3.573042    -5.710501
H     5.715959    -5.219026     4.671453
O     5.198905    -5.138583     5.500576
H     4.473538    -5.766391     5.413932
H    -3.958966     1.124261     7.006706
O    -3.767015     1.599819     7.850837
H    -4.643683     1.983381     8.112709
H    -1.856863     9.604810    -0.738860
O    -2.716586     9.476509    -0.263659
H    -3.329392     10.103890    -0.650753
H    -5.946926     4.674539    -2.933916
O    -6.855545     4.554404    -3.277821
H    -6.764296     3.852548    -3.955405
H     0.118506    -7.069617    -1.155539
O     0.591412    -7.499245    -0.413889
H    -0.080225    -7.705708     0.238457
H    -7.633701     3.772189    -1.968770
O    -7.893448     3.184239    -1.228952
H    -7.749015     2.275998    -1.569285
H     3.992216    -0.900542     6.978004
O     3.999619     0.063617     6.970321
H     4.810757     0.355439     6.537894
H     2.259034     5.793734    -1.179687
O     3.195366     5.502818    -1.066759
H     3.372045     4.963673    -1.860607
H     6.640036    -5.830974     0.693961
O     6.274079    -6.619755     1.168266
H     5.364691    -6.346478     1.396369
H    -3.859203     4.707000     7.784098
O    -3.292004     4.245946     7.124396
H    -3.483831     3.302047     7.233825
H     5.891810    -7.824953     0.004443
O     5.656764    -8.592201    -0.576347
H     4.795493    -8.345524    -0.976084
H    -0.543536     2.025365     7.691495
O    -1.177186     1.960704     6.956864
H    -2.045134     1.816863     7.353836
H    -6.369767    -0.141357     1.062580
O    -6.691034    -0.223213     0.149894
H    -7.608862    -0.497031     0.168490
H    -5.354638    -3.080759    -0.591161
O    -5.103938    -2.377777     0.034553
H    -5.675561    -1.606200    -0.152732
H     4.319548     5.577445     0.318094
O     4.654320     5.677796     1.223040
H     3.959244     6.186231     1.676556
H    -9.030835    -1.766001    -2.252456
O    -8.482938    -1.563955    -1.466625
H    -8.607896    -2.301770    -0.829676
H    -5.523144     3.459271    -5.524406
O    -6.038973     2.747508    -5.109779
H    -5.371074     2.162663    -4.697103
H     3.189171    -0.885181    -5.663150
O     2.333330    -1.005914    -6.128705
H     2.419027    -1.854764    -6.602291
H     8.124016    -1.337352    -6.041091
O     8.133982    -2.201873    -5.585482
H     7.277920    -2.602422    -5.836277
H     7.625373     1.002643    -6.319760
O     7.438020     0.153939    -6.732918
H     6.456656     0.102414    -6.769133
H    -7.841790    -3.714189     0.927695
O    -8.521103    -3.607977     0.244043
H    -8.421617    -4.366680    -0.358467
H    -2.410223     8.724034     1.299155
O    -2.257525     8.135213     2.051589
H    -1.486706     7.583574     1.827456
H    -4.440897     6.417164     3.502376
O    -4.612616     6.843753     2.646469
H    -3.850354     7.431152     2.506758
H     3.403488     3.448221    -3.581126
O     3.248648     4.417126    -3.486669
H     2.283482     4.480026    -3.593330
H    -6.103984    -1.620304    -3.443384
O    -6.185216    -2.200129    -2.659747
H    -6.969394    -1.895015    -2.150291
H     6.481527     1.049154     4.730678
O     6.087722     1.585994     5.435090
H     6.272565     2.505592     5.144600
H     1.365517     1.722653    -5.826521
O     1.173230     1.126081    -5.072330
H     1.537060     0.263533    -5.343284
H    -2.474686     2.941723     10.484433
O    -2.260900     2.034786     10.210187
H    -2.858793     1.834615     9.478070
H     7.642873    -0.495464     3.072936
O     6.891713     0.078340     3.242315
H     6.200229    -0.523053     3.621856
H    -5.634229    -8.070319    -0.708454
O    -4.899769    -8.138892    -0.061970
H    -4.903319    -7.321834     0.460179
H    -5.169444    -0.130486    -4.715661
O    -5.785364    -0.843062    -4.955913
H    -6.624581    -0.402876    -5.152614
H     1.895240    -0.195545    -7.521225
O     1.692636     0.276934    -8.364531
H     2.268969    -0.127277    -9.018528
H     4.878263    -1.383619    -9.314071
O     3.952550    -1.156060    -9.595144
H     3.931422    -1.273255    -10.544247
H     7.582559    -2.569082     4.187302
O     7.731568    -2.606207     3.228088
H     7.234829    -3.393883     2.954716
H     6.749165    -5.896659     2.664765
O     6.805970    -5.224659     3.365884
H     7.682789    -5.300858     3.785147
H    -1.822342     8.934000     3.502800
O    -1.574470     9.238381     4.401226
H    -2.423163     9.368771     4.857514
H    -7.385665     1.552617    -5.247541
O    -7.958939     0.807178    -5.002875
H    -8.861317     1.204935    -4.925721
H     6.932161    -1.070320    -8.415669
O     6.351899    -1.792703    -8.679365
H     6.125104    -2.243296    -7.847531
H    -1.681883     6.237919    -7.019442
O    -2.077922     5.411561    -6.746513
H    -1.828617     5.280185    -5.783161
H     0.013598     3.295402     9.022176
O     0.212781     2.375911     9.276656
H    -0.584879     2.109775     9.783188
H     6.769850    -2.771432    -2.716598
O     6.243857    -3.518082    -2.373188
H     6.712900    -4.326382    -2.625861
H    -4.064510    -3.083003    -4.947336
O    -4.219740    -2.969406    -5.911981
H    -4.768924    -2.177617    -5.966616
H     1.994342     2.172262     8.461557
O     2.657703     2.286380     7.771261
H     3.081023     1.416864     7.654731
H    -6.888296    -5.219377    -1.398850
O    -7.804033    -5.489463    -1.643732
H    -7.938732    -5.086924    -2.526438
H    -3.820572     5.237414     5.701003
O    -3.789599     6.006570     5.111037
H    -2.856064     6.302370     5.204598
H    -7.875226     0.069018    -1.963791
O    -7.387472     0.794144    -2.377140
H    -7.616286     0.783136    -3.330217
H     5.848872     0.132737     0.403353
O     5.626837     0.853606     1.024764
H     6.137540     0.658729     1.837314
H    -6.203672     3.287003     7.400336
O    -6.074284     2.768379     8.228503
H    -6.673142     2.005945     8.139892
H     2.406827    -8.129717    -0.866806
O     3.031576    -8.104266    -1.613728
H     2.719040    -8.777405    -2.242671
H    -2.731284    -3.968143    -6.202294
O    -1.975358    -4.532049    -5.972527
H    -1.699690    -4.241865    -5.074505
H    -5.634717     3.740127     5.313335
O    -6.283820     4.135173     5.931534
H    -6.121978     5.079516     5.918561
H    -0.999555    -7.119667    -3.176784
O    -0.531687    -6.442858    -2.654021
H     0.379311    -6.380823    -3.024460
H     4.456458     2.012656     5.123753
O     3.514505     2.250556     5.004486
H     3.130564     2.265226     5.886568
H     4.117528     4.651613     6.298370
O     4.197501     5.382114     5.680591
H     3.629185     5.141625     4.910132
H     2.772738     3.611811     3.920180
O     2.594064     4.551843     3.755158
H     2.473033     4.650940     2.788949
H     9.404055     0.221352    -1.082416
O     8.598171     0.382177    -0.588032
H     8.423602    -0.437079    -0.095637
H    -2.090178     5.301403     10.653556
O    -2.810764     4.671320     10.885092
H    -3.028847     4.847637     11.800504
H     7.988894    -3.004375     0.315889
O     8.410294    -2.158480     0.570436
H     8.344389    -2.151819     1.532746
H     5.378640     3.663954     3.520411
O     6.035093     3.929667     4.186389
H     5.621429     4.646428     4.689252
H    -4.198658     5.000299     9.789185
O    -4.832658     5.150883     9.067913
H    -5.443108     4.401091     9.065127
H    -6.996113    -3.494151    -3.486705
O    -7.616169    -4.106025    -3.935653
H    -7.094657    -4.547140    -4.638167
H     0.037066     6.113206     10.772608
O    -0.828248     6.443609     10.526579
H    -0.714084     6.874815     9.660358
H     2.594446     1.496989    -4.110198
O     3.472804     1.850565    -3.872132
H     3.793894     1.335829    -3.101868
H    -6.954949    -0.242785     7.221555
O    -7.464737     0.534587     7.503008
H    -8.088756     0.717385     6.799485
H    -2.712279    -9.883946    -0.839685
O    -2.654974    -8.942535    -1.003098
H    -3.559936    -8.578661    -0.758336
H    -10.066718     3.056569    -4.890696
O    -10.182180     2.138658    -4.610812
H    -10.397059     2.221316    -3.660771
H    -2.047471    -3.038438     4.609336
O    -2.921833    -3.479361     4.679517
H    -2.914590    -4.097255     3.922869
H    -0.153111    -7.990500     2.487134
O     0.672181    -7.777591     2.934430
H     1.389054    -8.064886     2.326949
H     6.728468    -2.376832     6.379480
O     7.176874    -3.087289     5.915792
H     6.546104    -3.821533     5.879731
H    -5.251718    -2.024223     6.942738
O    -5.929322    -1.526715     6.460011
H    -5.913148    -1.902914     5.550370
H     0.836226     3.033353    -7.116367
O     1.754508     2.704451    -7.174038
H     1.741090     1.957183    -7.800168
H    -3.953131     8.738166     6.679897
O    -3.951879     8.736879     5.722527
H    -4.075797     7.809342     5.454095
H    -2.068411     10.306354    -2.730562
O    -2.970682     10.486789    -3.031223
H    -2.900790     11.121093    -3.743998
H     9.431699    -4.057001     4.030349
O     9.150549    -4.738358     4.648947
H     8.723036    -4.268132     5.375897
H    -0.717905    -5.999758    -5.848646
O    -0.013027    -6.566160    -5.518050
H     0.821556    -6.103181    -5.734414
H     1.823120     8.271281     0.666082
O     1.518585     8.593520    -0.210869
H     2.332626     8.633115    -0.742168
H     3.498761     2.934358    -6.666865
O     4.327326     2.645299    -6.258605
H     4.083228     2.370636    -5.349686
H     3.731145     7.125723    -1.230990
O     3.935521     8.061926    -1.443848
H     4.303631     8.007111    -2.337694
H     4.399096    -0.000137    -7.919366
O     4.777705     0.146301    -7.050616
H     4.593879     1.077557    -6.805861
H     6.037822     1.937364    -0.483086
O     6.602288     2.131837    -1.245174
H     7.427928     1.653952    -1.052089
H     6.888548    -8.498495    -1.798500
O     7.474123    -8.185259    -2.526893
H     7.647732    -8.929351    -3.104279
H    -5.284750    -5.799560    -5.411244
O    -5.903351    -5.128411    -5.725224
H    -5.353550    -4.359153    -5.961648
H     0.688171     7.162243     7.602853
O    -0.213044     7.188132     7.963266
H    -0.769367     7.202345     7.146293
H    -8.884809    -2.851770    -4.100365
O    -9.406694    -2.044247    -3.932178
H    -9.122010    -1.378547    -4.562054
H    -2.391411    -5.996859    -2.149534
O    -3.269728    -5.710572    -2.418188
H    -3.456831    -6.086703    -3.303144
H    -2.969044    -5.907996    -5.415187
O    -3.568435    -6.518672    -4.943899
H    -3.084988    -7.338013    -4.776029
H    -1.391828     3.723646    -6.982320
O    -0.849642     2.968771    -6.712851
H    -1.086148     2.183457    -7.262767
H    -0.201212     0.417146    -8.219203
O    -1.097198     0.651032    -7.934621
H    -1.270937     0.126293    -7.137058
H    -10.420867     4.031764    -2.725420
O    -10.486704     3.252692    -2.157677
H    -9.656632     3.226895    -1.649884
H     4.585855     4.080459     1.716247
O     4.380019     3.158848     1.994613
H     5.096299     2.584547     1.711265
H     6.490747     1.405907    -4.228013
O     6.190518     0.780373    -3.533979
H     6.220039     1.275857    -2.690137
H     9.647213    -2.214765    -0.943810
O     9.922291    -2.000810    -1.844098
H     9.121293    -1.661711    -2.286383
H     9.984167    -3.305850    -3.115136
O     9.717248    -3.958590    -3.789559
H     9.321655    -3.451943    -4.509581
H    -7.674342    -8.592313    -1.670325
O    -6.938085    -7.996393    -1.800316
H    -7.317106    -7.084133    -1.788257
H     4.157760     6.084974    -3.823374
O     4.817825     6.787251    -3.738735
H     5.654902     6.334644    -3.602219
H     0.119014    -8.174239    -5.223826
O     0.145512    -9.156716    -5.092926
H     0.294840    -9.519597    -5.966015
H    -2.308804    -8.681003    -2.724699
O    -2.077834    -8.417511    -3.635399
H    -1.428660    -9.034034    -3.992899
H     2.211072    -10.815975    -3.493562
O     2.170967    -9.860649    -3.481106
H     1.380906    -9.594218    -4.001523
H     6.836805     3.339579    -4.582017
O     6.895630     2.661809    -5.283262
H     6.101420     2.793951    -5.823204
H    -3.540238    -3.741021     7.716996
O    -3.655606    -2.952601     7.188088
H    -3.405198    -3.190609     6.269086
H    -0.626822    -3.364598    -6.729667
O     0.002106    -2.631833    -6.738157
H    -0.480817    -1.857734    -6.395096
H     0.659721     0.449209     8.748733
O     0.668307    -0.265262     8.107810
H    -0.253495    -0.555812     8.020560
H    -5.839708     7.355742    -4.243812
O    -6.342032     6.736573    -4.804997
H    -6.627033     6.004434    -4.214252
H    -4.286296     9.092965    -3.255620
O    -4.820510     8.295820    -3.149515
H    -4.410574     7.816286    -2.411458
H    -9.714560     5.778702    -4.636304
O    -10.246358     4.973002    -4.472834
H    -11.127615     5.172458    -4.790717
H     2.774282     6.509347     6.139264
O     1.814167     6.604095     6.238297
H     1.471957     5.690260     6.135456
H     4.800003     8.549418     0.082938
O     5.118763     8.550255     1.003413
H     5.526765     7.686324     1.133381
H     4.159809    -7.423877    -4.357003
O     3.403227    -7.710381    -4.898813
H     3.121872    -8.550051    -4.519373
H     0.377010     8.650952     4.237307
O     1.056028     8.008049     4.008158
H     1.283849     7.514724     4.822147
H     5.236196     4.197011    -3.163097
O     6.197781     4.168324    -3.111378
H     6.408213     3.587059    -2.363877
H    -2.556695    -1.561213     7.570522
O    -2.047709    -0.767156     7.791029
H    -2.674622    -0.142493     8.166013
H    -9.034245     7.919281    -4.135379
O    -8.970663     7.335656    -4.892869
H    -8.013397     7.173199    -5.028832
H     3.273986    -9.101759     1.467905
O     2.706332    -8.324942     1.286690
H     3.231521    -7.568598     1.602927
H     3.582950     8.170883     1.829228
O     2.793809     7.605606     1.941772
H     2.347630     7.839943     2.768334
N     4.648459    -10.295281     1.354218
H     5.118074    -9.791230     0.649967
H     5.256397    -10.306530     2.099030
