21
Coordinates from ORCA-job grain_mol_opt.QMRegion
  H   -8.98943674799059     -1.81330657171307     -2.26603904473531
  O   -8.49071172140083     -1.58878279321160     -1.45883323119257
  H   -8.58442158523826     -2.33643427405366     -0.81825004436872
  H   -7.32038267925285      1.66668253117220     -5.23487843256423
  O   -7.91263171796941      0.92637596543700     -5.00002205965810
  H   -8.80659490163171      1.33551292612937     -4.90452650750355
  H   -7.83788075652987      0.10431186190059     -1.90469093776608
  O   -7.36728672617328      0.83701427390242     -2.32821592105466
  H   -7.58160809928213      0.84463951289639     -3.28356177606446
  H   -10.22479311571914      3.01071172147079     -4.94995081776921
  O   -10.26279472955454      2.13879972650675     -4.53279943776272
  H   -10.32317109633985      2.39577929829993     -3.57701223601134
  H   -8.77599142149516     -2.82266585473906     -4.22846040668270
  O   -9.23650272557576     -1.96254785547258     -4.11675309989832
  H   -8.74380866996813     -1.34506809087512     -4.67317489920164
  H   -10.30592817499130      4.20177867287630     -2.75589726572760
  O   -10.41140638806503      3.44384725140118     -2.15988842104054
  H   -9.55232211186902      3.39185034683014     -1.68568415589549
  O   -11.65475775258391     -0.46026077574283     -5.40021402040470
  H   -11.34850437357090      0.41059940872815     -5.11203584145699
  H   -11.08373897708852     -1.08393771621895     -4.93373814166195
