18
Coordinates from ORCA-job grain_mol_opt.QMRegion
  H   0.70278568446950     -4.98857617165426      1.96439037704328
  O   0.18048987272287     -5.06675474298021      2.78539368796211
  H   0.32892068989558     -5.97505020764351      3.07731007064880
  H   3.39367052205876     -6.12253470070291      3.17539356760208
  O   3.74624567061743     -5.93648209068731      2.26580611146706
  H   3.01759109411155     -5.58414539839649      1.72013834802221
  H   2.46756406360686     -5.52091200829498      4.98073968349333
  O   2.95484188923241     -6.36072106383796      4.75295970503686
  H   2.42833317500044     -7.11121078551756      5.08882196541921
  H   -0.38233513552139     -7.94845896424382      2.26357141248120
  O   0.45199127904198     -7.90982916933718      2.76020927103092
  H   1.16830036288006     -8.17988246927275      2.15135032262261
  H   3.49788619250768     -9.00774105737411      1.00812419779768
  O   2.84096277451545     -8.37969707562373      1.32583470651014
  H   3.35359550284071     -7.60341595987610      1.63433396542568
  O   1.27176998087211     -8.51941913802870      5.32826002035648
  H   0.86872237173567     -8.47161962519789      4.43850142630925
  H   1.67796031170898     -9.38950459851457      5.37317895905542
