15
Coordinates from ORCA-job grain_mol_opt.QMRegion
  H   -3.69717635395911      0.03229758431620      4.93319247183499
  O   -4.32840406131210      0.48557034394837      5.54627792941257
  H   -5.01338196247687     -0.16387374189360      5.77043325908099
  H   -6.96807816597181     -0.09623198529067      7.15378591126053
  O   -7.52723621587212      0.55622139087061      7.61141180197029
  H   -8.15520616859020      0.85110901017109      6.94552322699566
  H   -5.25368045706536     -2.00365969642137      6.87178645351451
  O   -5.99542669169760     -1.55345104678215      6.41670739759677
  H   -5.93699219848570     -1.91841582219923      5.50039309636699
  H   -3.56775663154775     -3.65345496718559      7.74060258279812
  O   -3.64897996881932     -2.89507725239248      7.15661957154109
  H   -3.35998097367790     -3.20349627618802      6.26932436921660
  O   -7.74527657466617     -2.42103911437415      8.68881074120652
  H   -7.37962798755367     -2.46034062858379      7.79550558166601
  H   -8.03133345809438     -1.50141840498188      8.75321682723494
