27

H    -6.069744    -1.469115    -3.453513
O    -6.222764    -2.132242    -2.752290
H    -6.984769    -1.819287    -2.215760
H    -5.074044     0.042100    -4.845182
O    -5.508860    -0.795037    -5.088475
H    -6.351860    -0.571517    -5.506609
H    -7.352276     1.707365    -5.223013
O    -7.927606     0.962770    -4.971768
H    -8.830982     1.364300    -4.943397
H    -4.028165    -3.098570    -4.937139
O    -4.143916    -3.032090    -5.914852
H    -4.518777    -2.141559    -6.014829
H    -7.916602     0.137666    -1.955392
O    -7.377870     0.834579    -2.351727
H    -7.584254     0.869692    -3.316450
H    -6.952191    -3.444759    -3.600786
O    -7.517363    -4.120285    -4.051994
H    -6.891860    -4.653499    -4.600878
H    -5.155580    -5.839924    -5.537452
O    -5.824677    -5.209714    -5.852931
H    -5.294145    -4.405283    -6.044691
H    -9.052093    -2.932091    -4.045498
O    -9.597528    -2.153533    -3.834295
H    -9.315859    -1.500601    -4.485101
N    -7.742842    -2.162942    -6.305884
H    -7.926251    -2.431519    -7.209181
H    -7.624764    -2.989036    -5.807947
