603

H     0.216501     3.050200    -0.691937
O     0.737624     2.380817    -1.184925
H     1.676369     2.505155    -0.908201
H    -0.085958    -1.281630     3.142026
O     0.309076    -0.583324     2.597269
H    -0.166075     0.231968     2.829254
H    -2.387490     2.437446    -0.556626
O    -2.179010     1.968913     0.268475
H    -2.197765     1.020348     0.046154
H    -4.664229     0.586426     2.159021
O    -4.985111    -0.345465     2.171613
H    -4.479674    -0.826187     1.507905
H     0.062175    -0.287193     0.941859
O    -0.132246    -0.050020     0.014316
H     0.212156     0.844612    -0.105828
H    -0.174163    -3.550530     3.772277
O    -0.451002    -2.718537     4.190385
H     0.193540    -2.549520     4.894036
H    -4.877870     2.570773     1.302480
O    -4.242468     2.159215     1.919648
H    -3.397911     2.137351     1.410299
H    -3.228699     3.924567    -2.241339
O    -2.495048     3.328189    -2.004276
H    -2.132619     3.034922    -2.860988
H    -0.137694    -3.783098     0.498020
O     0.203951    -2.965776     0.914904
H    -0.582499    -2.476658     1.224801
H    -2.387212    -1.506250     2.455380
O    -2.197988    -1.973958     1.615358
H    -2.452135    -1.386800     0.884501
H     2.072437    -1.431860    -1.124393
O     2.300863    -1.683699    -0.205944
H     1.509457    -2.108534     0.176498
H    -1.385577     1.853552     1.895579
O    -1.483287     1.457063     2.771312
H    -1.467420     2.169552     3.436281
H     0.204685    -2.685468    -1.576594
O    -0.548114    -2.070533    -1.634125
H    -0.367774    -1.344818    -0.999815
H    -3.444176    -2.893288    -0.406604
O    -2.727437    -3.388073    -0.825048
H    -2.014427    -2.760240    -1.041888
H     2.767224     0.144058     2.929669
O     2.863178    -0.037691     3.891759
H     2.956779     0.855230     4.295809
H    -3.399096     6.442824    -0.497474
O    -3.225301     7.101982    -1.230330
H    -3.043475     7.953101    -0.779313
H     3.902637     0.592380     1.184360
O     2.950962     0.414680     1.297613
H     2.712816    -0.338194     0.719205
H    -5.772867     0.880441    -1.630138
O    -4.861554     1.205425    -1.504302
H    -4.968914     2.034435    -0.993313
H    -1.197320     5.425322     2.189273
O    -1.825963     4.681670     2.069721
H    -1.907890     4.262835     2.931926
H     3.503955     2.771888     0.419298
O     3.257402     2.728509    -0.520321
H     3.588579     1.884520    -0.868908
H     1.482144    -4.684774    -2.251199
O     1.547667    -3.906586    -1.679399
H     2.345152    -3.449142    -2.028799
H    -0.913269    -0.065589    -2.560883
O    -0.278093     0.585994    -2.884881
H    -0.015912     1.167046    -2.147612
H     1.684732    -4.671256    -0.179482
O     1.787619    -5.307557     0.564291
H     1.322209    -6.117621     0.268316
H    -1.229289    -3.245171    -2.889054
O    -1.056341    -3.929618    -3.548776
H    -0.934095    -4.776622    -3.078671
H    -2.779107     3.346039     4.682237
O    -1.797744     3.339633     4.649948
H    -1.508391     2.938405     5.487728
H     0.970270     5.057641     4.060694
O     0.024724     5.292824     4.107944
H    -0.450535     4.492158     4.367845
H    -1.744317    -4.624592    -0.380414
O    -0.981653    -5.167364    -0.092794
H    -1.332893    -5.852382     0.485476
H    -3.722140     5.841504    -2.776887
O    -4.160153     5.033251    -3.066930
H    -3.931269     4.926010    -4.018953
H    -2.446810    -3.657576     1.924190
O    -2.469341    -4.561267     2.300855
H    -1.530792    -4.802407     2.444388
H    -4.697160    -2.946512    -2.917306
O    -3.844522    -3.182400    -3.321304
H    -3.517467    -3.976883    -2.854576
H     0.334298     1.402888     4.603033
O     0.842959     2.161142     4.268939
H     0.893006     2.820534     4.975379
H    -4.667932    -5.134871    -1.586597
O    -5.369699    -4.777728    -1.015078
H    -5.160327    -5.132141    -0.129971
H     2.315239    -6.475067    -4.035712
O     1.977211    -6.143730    -3.183554
H     2.407827    -6.718286    -2.518402
H     0.466493    -3.365730    -4.010663
O     1.271321    -3.001629    -4.432273
H     0.955246    -2.630759    -5.282316
H     1.952047    -1.735144     2.978366
O     2.104432    -2.666788     2.762355
H     1.419313    -2.878928     2.094161
H    -3.011752    -1.782692    -3.225466
O    -2.587219    -0.897071    -3.161057
H    -3.240033    -0.250634    -3.483702
H    -3.117747     5.005488     1.126288
O    -3.894289     5.377881     0.645191
H    -4.312852     5.934673     1.350856
H     0.878924     2.274875     2.579170
O     0.982171     2.268714     1.608090
H     1.707528     1.642801     1.446741
H     0.214150     5.676681    -0.776527
O     0.737182     6.336598    -1.286455
H     0.883703     7.136003    -0.730632
H     0.362404     7.059242     2.570930
O     0.001473     6.679444     1.752561
H     0.663597     6.005592     1.494736
H    -2.486246     0.249138     3.323822
O    -2.711679    -0.563764     3.828733
H    -1.953072    -0.604715     4.452773
H    -0.905750     0.586114     6.011235
O    -0.631354     0.065028     5.237944
H     0.079060    -0.540806     5.527410
H     0.688841    -4.973541     1.977763
O     0.144073    -5.079883     2.780956
H     0.284848    -6.000589     3.054877
H    -2.147153    -8.059385     0.442693
O    -1.824807    -7.571214     1.227789
H    -2.611032    -7.257066     1.681961
H    -0.340961     6.884688    -2.349040
O    -1.087817     7.303608    -2.850487
H    -1.873742     7.184283    -2.280721
H    -1.097750     4.334828     0.555287
O    -0.724202     4.395329    -0.340800
H    -1.429354     4.152014    -0.973406
H    -4.407384     2.787856     3.482032
O    -4.406543     2.959786     4.446065
H    -4.494618     2.077881     4.856710
H     2.002429    -3.563113     4.243097
O     1.934801    -4.033996     5.096719
H     2.442292    -3.498405     5.727963
H     4.675943    -3.189783     0.843891
O     4.518083    -3.114595    -0.123123
H     3.661009    -2.634619    -0.209115
H    -2.720446    -0.720115    -1.368481
O    -3.048406    -0.446730    -0.495322
H    -3.847613     0.079777    -0.704486
H    -1.606641    -0.741062    -4.645247
O    -1.097798    -0.526685    -5.448363
H    -0.385590     0.066414    -5.162035
H     1.798414    -1.705436    -3.381421
O     1.891619    -0.957590    -2.759574
H     1.116562    -0.378380    -2.893508
H     3.647130    -3.111331     2.552720
O     4.605522    -3.343643     2.482004
H     4.656708    -4.303776     2.610453
H     3.398222    -6.108832     3.128868
O     3.756720    -5.910361     2.229210
H     3.021678    -5.562971     1.684173
H    -3.327141     1.637865    -4.200142
O    -4.175489     1.172841    -4.011585
H    -4.393036     1.316852    -3.054789
H    -5.051632     4.145243     0.023868
O    -5.514857     3.295377    -0.063916
H    -6.437835     3.386084    -0.383232
H     6.734458    -1.187529    -1.355618
O     5.960919    -1.034292    -0.806584
H     5.538755    -1.900402    -0.608494
H     4.589596    -3.168324    -2.466132
O     3.723372    -2.994410    -2.884532
H     3.726419    -3.614532    -3.639625
H     4.414361    -2.281459     5.624457
O     4.067679    -2.744700     6.417266
H     4.399855    -3.650961     6.337827
H    -0.742689     6.368215     5.053422
O    -1.338520     6.946511     5.589542
H    -1.347940     7.823284     5.147481
H     4.702821    -0.134447    -1.465983
O     3.937835     0.410140    -1.731553
H     3.244282    -0.188812    -2.062198
H    -0.717563     4.538381    -4.057491
O    -1.495488     5.088517    -4.266561
H    -1.333470     5.954744    -3.846731
H     0.678408     3.218420    -2.672258
O     0.686306     3.594098    -3.581451
H     0.735566     2.829603    -4.165537
H    -5.405511    -5.151200     1.777179
O    -4.710091    -5.748558     1.423898
H    -3.868716    -5.335639     1.696443
H     7.886002    -1.704044    -4.023688
O     7.627005    -1.388516    -3.125163
H     7.143655    -0.543172    -3.284053
H     3.696584    -5.072833    -5.285399
O     4.459082    -4.701191    -4.803078
H     4.839949    -5.412818    -4.255466
H    -3.795359     0.058783     4.914720
O    -4.395826     0.526273     5.544785
H    -5.059102    -0.128834     5.836564
H     3.445294    -5.935235    -0.513979
O     4.319428    -5.691539    -0.830607
H     4.399044    -4.729380    -0.687842
H     5.010362    -0.339630    -4.159132
O     4.472830    -1.049125    -4.549345
H     4.143502    -1.630813    -3.831557
H    -1.157586     1.591019    -3.952179
O    -1.803697     2.215652    -4.339243
H    -1.443447     2.541541    -5.186856
H     4.868522    -6.322693    -2.306100
O     5.202266    -6.649842    -3.170554
H     6.017976    -7.133683    -2.981263
H     8.729673    -5.107450    -2.901730
O     8.035338    -5.521797    -2.344649
H     8.066906    -6.479414    -2.445113
H     2.355404     4.731991     0.439655
O     1.772595     4.717939     1.208169
H     1.413182     3.798516     1.287750
H    -4.434023    -2.592302     4.213604
O    -5.326332    -2.250136     4.008310
H    -5.185515    -1.470023     3.432531
H    -5.860012    -3.151913     1.297127
O    -6.326291    -3.706472     1.964868
H    -6.138364    -3.270799     2.815462
H     1.683190     3.493300     6.850251
O     1.063371     4.010211     6.314058
H     0.279659     4.167018     6.883870
H     4.985398    -2.161675     3.619838
O     5.006843    -1.442388     4.282824
H     4.197292    -0.883634     4.123598
H     2.359768    -5.557981     4.840859
O     2.737283    -6.443447     4.582787
H     1.990625    -7.022687     4.408048
H     2.257434    -4.513519    -6.789954
O     2.084544    -5.000004    -5.973993
H     1.821060    -4.307048    -5.320084
H     6.426816    -4.106941    -0.493737
O     7.177576    -4.511769    -0.028085
H     7.685056    -4.937554    -0.746957
H    -1.726861     4.527924     7.679566
O    -0.828150     4.623343     8.066184
H    -0.644259     5.581924     8.090564
H    -4.951151     5.623783    -5.789815
O    -4.381204     4.824957    -5.778186
H    -3.624384     4.988184    -6.366377
H     3.292824    -2.531184    -8.436952
O     3.201012    -3.061615    -7.634628
H     4.076882    -3.040533    -7.204032
H    -0.620003     8.850281    -2.305188
O    -0.500820     9.676620    -1.783256
H     0.260724     9.501166    -1.205514
H     2.051505    -0.891846     5.206944
O     1.475143    -1.414803     5.793394
H     1.568028    -1.068812     6.690472
H     5.212217    -2.031083    -5.689203
O     5.556773    -2.799343    -6.209271
H     5.279079    -3.587574    -5.691099
H     5.666121    -5.208241     4.695583
O     5.142213    -5.119964     5.520858
H     4.418917    -5.749854     5.434902
H    -3.986169     1.191407     6.985160
O    -3.793995     1.667970     7.828387
H    -4.669450     2.057196     8.086760
H    -1.813414     9.642799    -0.776513
O    -2.675218     9.514080    -0.303751
H    -3.284334     10.152516    -0.678145
H    -5.905472     4.758340    -3.096840
O    -6.819957     4.621074    -3.429312
H    -6.690873     3.881137    -4.072845
H     0.072093    -7.045940    -1.143917
O     0.533182    -7.482194    -0.394525
H    -0.148111    -7.673981     0.253033
H    -7.600860     3.742092    -2.107187
O    -7.872383     3.175421    -1.350242
H    -7.698919     2.265545    -1.699175
H     3.954264    -0.875941     6.986121
O     3.966147     0.088162     6.974928
H     4.780829     0.374400     6.545409
H     2.282353     5.806849    -1.194951
O     3.216171     5.511219    -1.077710
H     3.393305     4.969127    -1.869466
H     6.528080    -5.932009     0.684749
O     6.155527    -6.666246     1.218542
H     5.251549    -6.385507     1.443086
H    -3.869429     4.775710     7.753634
O    -3.302777     4.309967     7.096555
H    -3.500060     3.367477     7.208089
H     5.733811    -7.945991     0.151877
O     5.444966    -8.633042    -0.485262
H     4.617826    -8.305217    -0.881822
H    -0.568109     2.076252     7.677788
O    -1.199750     2.012752     6.941217
H    -2.069688     1.875002     7.336078
H    -6.385494    -0.076976     1.036948
O    -6.704243    -0.157533     0.123195
H    -7.623209    -0.427865     0.139282
H    -5.381196    -3.024854    -0.606648
O    -5.127869    -2.321457     0.017452
H    -5.695376    -1.547623    -0.173083
H     4.337205     5.583794     0.310773
O     4.668864     5.684893     1.216663
H     3.975022     6.198222     1.666412
H    -9.044785    -1.693183    -2.282730
O    -8.497037    -1.492962    -1.496232
H    -8.629319    -2.228010    -0.857644
H    -5.502359     3.499073    -5.556409
O    -6.031217     2.812216    -5.116332
H    -5.369245     2.214732    -4.712576
H     3.190404    -0.887851    -5.657551
O     2.335063    -1.005248    -6.125192
H     2.418765    -1.855360    -6.597109
H     8.123726    -1.367688    -6.019530
O     8.127648    -2.230863    -5.561523
H     7.270765    -2.628357    -5.813561
H     7.639021     0.974217    -6.305044
O     7.447890     0.125935    -6.717295
H     6.466511     0.079307    -6.755657
H    -7.876377    -3.641688     0.906329
O    -8.551827    -3.532489     0.219423
H    -8.455964    -4.293842    -0.380176
H    -2.376473     8.770197     1.265256
O    -2.231172     8.179473     2.017417
H    -1.461100     7.624732     1.798561
H    -4.430962     6.476558     3.464851
O    -4.593258     6.899557     2.605373
H    -3.830569     7.487367     2.471583
H     3.421303     3.449510    -3.585859
O     3.270463     4.419438    -3.494373
H     2.306258     4.487082    -3.604792
H    -6.114043    -1.567830    -3.464803
O    -6.199904    -2.144634    -2.679529
H    -6.985066    -1.835010    -2.173856
H     6.460778     1.054625     4.741643
O     6.066774     1.595956     5.442624
H     6.259052     2.513480     5.150897
H     1.381351     1.728748    -5.833282
O     1.182523     1.135148    -5.078379
H     1.543848     0.270302    -5.345731
H    -2.502547     3.009320     10.463083
O    -2.292755     2.100715     10.191180
H    -2.889893     1.902193     9.458037
H     7.618562    -0.499708     3.090615
O     6.870047     0.078792     3.256494
H     6.174986    -0.518546     3.635620
H    -5.686808    -8.013851    -0.712530
O    -4.953381    -8.083956    -0.064622
H    -4.955672    -7.266049     0.456363
H    -5.167499    -0.085610    -4.738374
O    -5.786571    -0.795517    -4.978391
H    -6.623175    -0.351754    -5.178381
H     1.906446    -0.196242    -7.521415
O     1.708119     0.275319    -8.366325
H     2.284621    -0.132945    -9.017731
H     4.888153    -1.404536    -9.301832
O     3.964450    -1.172683    -9.586468
H     3.945961    -1.292495    -10.535310
H     7.545056    -2.570808     4.210100
O     7.693525    -2.608625     3.250923
H     7.198460    -3.398516     2.979355
H     6.693462    -5.894317     2.698225
O     6.755899    -5.218011     3.398206
H     7.630484    -5.305507     3.818342
H    -1.797558     8.980762     3.469183
O    -1.549305     9.286158     4.366886
H    -2.398038     9.422297     4.821638
H    -7.373520     1.611411    -5.277505
O    -7.950313     0.867843    -5.035200
H    -8.851577     1.269830    -4.962462
H     6.941375    -1.100617    -8.397901
O     6.357006    -1.819691    -8.661596
H     6.126041    -2.267711    -7.829508
H    -1.628037     6.262109    -7.049831
O    -2.020551     5.434138    -6.778040
H    -1.781127     5.306814    -5.811532
H    -0.008132     3.346469     9.007348
O     0.185109     2.426349     9.264064
H    -0.615277     2.165856     9.769265
H     6.752196    -2.787642    -2.696127
O     6.218105    -3.529398    -2.355393
H     6.684431    -4.342310    -2.599220
H    -4.077742    -3.044717    -4.958809
O    -4.228797    -2.932626    -5.924179
H    -4.774111    -2.138479    -5.982892
H     1.968420     2.211635     8.455452
O     2.634022     2.320301     7.766429
H     3.053458     1.448364     7.653848
H    -6.923720    -5.157166    -1.413812
O    -7.839625    -5.423926    -1.660923
H    -7.970102    -5.022526    -2.544810
H    -3.822640     5.300815     5.669131
O    -3.784816     6.067160     5.075949
H    -2.850482     6.359037     5.173217
H    -7.880931     0.138605    -1.993197
O    -7.387816     0.858916    -2.408822
H    -7.614118     0.844092    -3.362613
H     5.836770     0.130679     0.414339
O     5.615920     0.854031     1.033491
H     6.123731     0.658340     1.847904
H    -6.219976     3.366870     7.367140
O    -6.095385     2.849063     8.196575
H    -6.698751     2.090214     8.108238
H     2.250591    -8.062284    -0.835318
O     2.928942    -8.052972    -1.530289
H     2.703021    -8.767430    -2.142600
H    -2.745306    -3.940219    -6.207849
O    -1.993912    -4.508390    -5.973625
H    -1.718909    -4.216847    -5.076071
H    -5.642291     3.812286     5.280297
O    -6.290659     4.211213     5.896394
H    -6.127248     5.155201     5.879405
H    -1.037471    -7.094464    -3.164594
O    -0.563865    -6.425212    -2.636706
H     0.344842    -6.360102    -3.015476
H     4.439756     2.030169     5.125306
O     3.499291     2.272931     5.002596
H     3.113128     2.291682     5.883659
H     4.111838     4.673981     6.292799
O     4.196915     5.402555     5.673426
H     3.629753     5.162948     4.902023
H     2.768709     3.635305     3.913280
O     2.594816     4.575685     3.744845
H     2.477963     4.672837     2.778126
H     9.396590     0.196699    -1.060589
O     8.589597     0.363075    -0.569792
H     8.410063    -0.454138    -0.075293
H    -2.106172     5.367206     10.627545
O    -2.830680     4.741357     10.858226
H    -3.051204     4.921390     11.772336
H     7.961180    -3.016614     0.339827
O     8.384497    -2.170866     0.594430
H     8.316870    -2.164293     1.556620
H     5.375312     3.672823     3.521241
O     6.031467     3.937226     4.187794
H     5.620351     4.657248     4.688028
H    -4.213362     5.075550     9.757301
O    -4.843626     5.227498     9.033059
H    -5.459006     4.481774     9.030772
H    -7.015643    -3.436957    -3.506064
O    -7.637510    -4.046810    -3.955023
H    -7.116700    -4.492274    -4.655234
H     0.025333     6.168635     10.750996
O    -0.837690     6.502115     10.501129
H    -0.718651     6.931308     9.634624
H     2.603951     1.500466    -4.112288
O     3.482556     1.851407    -3.871985
H     3.799903     1.336129    -3.100273
H    -6.990424    -0.159427     7.193828
O    -7.496175     0.621706     7.471726
H    -8.117666     0.806292     6.766435
H    -2.777104    -9.843162    -0.830455
O    -2.710239    -8.902017    -0.991768
H    -3.615379    -8.531943    -0.753672
H    -10.046872     3.133678    -4.937012
O    -10.163847     2.217120    -4.655065
H    -10.383574     2.302680    -3.705953
H    -2.089281    -2.987457     4.603944
O    -2.965967    -3.424166     4.672300
H    -2.960469    -4.043546     3.917337
H    -0.212986    -7.956434     2.487891
O     0.613165    -7.747773     2.937022
H     1.331692    -8.047533     2.352466
H     6.682781    -2.367919     6.401146
O     7.130465    -3.080019     5.939484
H     6.498003    -3.812719     5.901275
H    -5.295318    -1.950518     6.925108
O    -5.968460    -1.450682     6.438606
H    -5.952216    -1.829753     5.530392
H     0.862873     3.038735    -7.128713
O     1.779465     2.704990    -7.181775
H     1.764971     1.956215    -7.806221
H    -3.940316     8.805017     6.639187
O    -3.930765     8.800314     5.681930
H    -4.062867     7.873441     5.415488
H    -2.053060     10.327933    -2.773799
O    -2.956093     10.495873    -3.078730
H    -2.887771     11.146629    -3.776954
H     9.386637    -4.067422     4.061643
O     9.102721    -4.743441     4.684612
H     8.673666    -4.268264     5.407171
H    -0.744059    -5.982528    -5.842989
O    -0.043579    -6.550956    -5.506508
H     0.794229    -6.093279    -5.723299
H     1.852941     8.292215     0.643640
O     1.552220     8.612228    -0.235751
H     2.368621     8.647484    -0.763906
H     3.523818     2.927569    -6.669856
O     4.349414     2.635357    -6.258086
H     4.101319     2.363732    -5.349367
H     3.761575     7.131429    -1.243970
O     3.969651     8.066181    -1.459154
H     4.341722     8.007129    -2.351112
H     4.412638    -0.015339    -7.912584
O     4.787825     0.131262    -7.042397
H     4.609411     1.064366    -6.801229
H     6.038697     1.931622    -0.475422
O     6.605916     2.121773    -1.236572
H     7.428475     1.639519    -1.040381
H     6.656443    -8.437224    -1.588504
O     7.294533    -8.230040    -2.324203
H     7.658894    -9.066064    -2.609907
H    -5.311025    -5.756204    -5.419967
O    -5.924888    -5.082197    -5.736909
H    -5.370311    -4.316788    -5.974415
H     0.691651     7.206387     7.580220
O    -0.210436     7.237353     7.937925
H    -0.764504     7.252772     7.119569
H    -8.899579    -2.785941    -4.127350
O    -9.416286    -1.974626    -3.961983
H    -9.127739    -1.312773    -4.594082
H    -2.427874    -5.961129    -2.149150
O    -3.303995    -5.671281    -2.420596
H    -3.490876    -6.047451    -3.305798
H    -2.996526    -5.876293    -5.416708
O    -3.599767    -6.482640    -4.944452
H    -3.121554    -7.304610    -4.775361
H    -1.358291     3.740476    -7.005722
O    -0.825624     2.982173    -6.728149
H    -1.062536     2.196946    -7.278379
H    -0.184696     0.426107    -8.227829
O    -1.080239     0.665644    -7.946259
H    -1.259391     0.143218    -7.148421
H    -10.609473     3.960667    -2.712119
O    -10.605223     3.140902    -2.190198
H    -9.724837     3.140898    -1.773768
H     4.591381     4.088498     1.713278
O     4.377998     3.168708     1.991591
H     5.092929     2.589614     1.714442
H     6.499863     1.389176    -4.217989
O     6.192518     0.767558    -3.523677
H     6.223959     1.264152    -2.680558
H     9.626634    -2.241238    -0.914983
O     9.905937    -2.029142    -1.814485
H     9.107727    -1.688431    -2.260196
H     9.963793    -3.340978    -3.081543
O     9.695598    -3.993172    -3.755856
H     9.305571    -3.485393    -4.477977
H    -7.726335    -8.527182    -1.679282
O    -6.986264    -7.935420    -1.806753
H    -7.360952    -7.021196    -1.799105
H     4.191039     6.081052    -3.832624
O     4.853772     6.780552    -3.746538
H     5.688482     6.324442    -3.607092
H     0.078690    -8.157666    -5.212093
O     0.098534    -9.140364    -5.078429
H     0.249500    -9.506346    -5.949983
H    -2.359083    -8.647526    -2.716922
O    -2.122248    -8.385743    -3.626298
H    -1.477471    -9.007370    -3.982929
H     2.151391    -10.808327    -3.483281
O     2.108544    -9.853585    -3.460708
H     1.325175    -9.581002    -3.988995
H     6.857854     3.320111    -4.575633
O     6.914841     2.640326    -5.274985
H     6.123213     2.775456    -5.817844
H    -3.595315    -3.674192     7.709245
O    -3.705212    -2.886929     7.177470
H    -3.452960    -3.128599     6.260169
H    -0.635753    -3.349404    -6.730593
O    -0.003205    -2.619907    -6.737971
H    -0.483201    -1.842374    -6.398828
H     0.623920     0.495746     8.742892
O     0.630068    -0.219957     8.103304
H    -0.293055    -0.505685     8.014516
H    -5.690471     7.351305    -4.560732
O    -6.186636     6.746666    -5.138820
H    -6.527816     6.061454    -4.518356
H    -4.274228     9.186689    -3.179485
O    -4.815547     8.384668    -3.086912
H    -4.339421     7.869269    -2.402101
H    -9.769517     5.803024    -4.461491
O    -10.326962     4.989823    -4.463178
H    -11.141958     5.251117    -4.899063
H     2.778561     6.538672     6.124764
O     1.818542     6.638723     6.219457
H     1.472037     5.726233     6.119170
H     4.833758     8.552755     0.069332
O     5.148339     8.553780     0.991166
H     5.552908     7.688744     1.124479
H     4.124798    -7.426439    -4.331686
O     3.366671    -7.709115    -4.875044
H     3.082697    -8.548613    -4.498392
H     0.398846     8.688207     4.210275
O     1.073984     8.040223     3.983827
H     1.297838     7.548431     4.799929
H     5.257043     4.188861    -3.163604
O     6.218218     4.156151    -3.108546
H     6.423724     3.574968    -2.359528
H    -2.600325    -1.500013     7.560027
O    -2.087625    -0.708035     7.779055
H    -2.711706    -0.079155     8.151759
H    -8.569403     7.521732    -3.568125
O    -8.943283     7.341000    -4.451029
H    -8.147164     7.306538    -5.003895
H     3.494851    -8.968988     1.102813
O     2.820002    -8.334112     1.348684
H     3.296994    -7.530226     1.628699
H     3.608723     8.184825     1.812053
O     2.815132     7.625296     1.922938
H     2.368855     7.863229     2.748474
N    -7.479941     7.934343    -2.056485
H    -7.338139     7.266945    -1.378246
H    -6.587826     8.227647    -2.314484
