603

H     0.203528     3.024230    -0.682627
O     0.726178     2.356210    -1.176531
H     1.664946     2.483945    -0.902008
H    -0.080653    -1.320809     3.134912
O     0.316978    -0.619132     2.596383
H    -0.162660     0.193903     2.827379
H    -2.396093     2.405268    -0.542394
O    -2.186616     1.932128     0.280440
H    -2.203706     0.984938     0.052610
H    -4.663875     0.537252     2.168868
O    -4.981461    -0.395991     2.180039
H    -4.477250    -0.872376     1.512275
H     0.064968    -0.318452     0.940582
O    -0.132873    -0.080260     0.014248
H     0.206650     0.816554    -0.104893
H    -0.186874    -3.588084     3.743796
O    -0.454098    -2.757174     4.171504
H     0.191174    -2.612993     4.878919
H    -4.885581     2.522749     1.321986
O    -4.246554     2.111349     1.936057
H    -3.403794     2.094424     1.423211
H    -3.244588     3.896787    -2.216055
O    -2.507828     3.298442    -1.985890
H    -2.148638     3.012728    -2.845956
H    -0.128137    -3.814308     0.483842
O     0.211736    -2.997469     0.903193
H    -0.575809    -2.511293     1.215153
H    -2.381696    -1.550567     2.452682
O    -2.190497    -2.014711     1.611251
H    -2.448756    -1.426514     0.882529
H     2.073257    -1.450754    -1.133861
O     2.303895    -1.706406    -0.216871
H     1.513525    -2.133687     0.164828
H    -1.391509     1.811937     1.904119
O    -1.482496     1.412843     2.779689
H    -1.469708     2.124602     3.445355
H     0.207881    -2.708272    -1.586845
O    -0.547344    -2.096079    -1.640330
H    -0.367759    -1.371095    -1.004910
H    -3.438966    -2.930493    -0.411387
O    -2.721221    -3.422193    -0.831807
H    -2.010776    -2.791423    -1.048741
H     2.776391     0.111806     2.924121
O     2.875882    -0.070686     3.886034
H     2.967564     0.821462     4.291739
H    -3.524927     6.375608    -0.542047
O    -3.285641     7.039524    -1.240623
H    -3.143482     7.883503    -0.768376
H     3.900952     0.570074     1.179319
O     2.950452     0.388231     1.293619
H     2.713573    -0.362737     0.712313
H    -5.779879     0.842101    -1.617724
O    -4.869288     1.168348    -1.489752
H    -4.980142     1.995772    -0.976504
H    -1.209873     5.384840     2.209973
O    -1.835301     4.638197     2.091481
H    -1.913928     4.218506     2.953329
H     3.495382     2.751810     0.422576
O     3.247153     2.710259    -0.516810
H     3.579798     1.868375    -0.868652
H     1.489353    -4.701468    -2.271140
O     1.554293    -3.925796    -1.695905
H     2.349369    -3.464315    -2.045483
H    -0.920395    -0.086905    -2.560097
O    -0.285161     0.565462    -2.882272
H    -0.024985     1.146324    -2.144048
H     1.696093    -4.695124    -0.199645
O     1.802249    -5.333925     0.541646
H     1.338200    -6.144031     0.243576
H    -1.227253    -3.266836    -2.899235
O    -1.053441    -3.948890    -3.561270
H    -0.928212    -4.796964    -3.094065
H    -2.781744     3.290740     4.700074
O    -1.800434     3.286479     4.667144
H    -1.508134     2.882803     5.502409
H     0.961227     5.018937     4.075109
O     0.014458     5.250112     4.126021
H    -0.455789     4.446476     4.384935
H    -1.733649    -4.657057    -0.394193
O    -0.968950    -5.198771    -0.109862
H    -1.317298    -5.887277     0.466012
H    -3.912506     5.832477    -2.598586
O    -4.263499     4.999310    -2.930496
H    -4.108037     4.966654    -3.898672
H    -2.435785    -3.700008     1.914370
O    -2.456372    -4.604606     2.288984
H    -1.516919    -4.846407     2.426940
H    -4.696059    -2.978173    -2.919664
O    -3.843566    -3.210710    -3.325882
H    -3.513548    -4.005694    -2.862287
H     0.330220     1.358827     4.607333
O     0.846114     2.113390     4.278755
H     0.889565     2.776662     4.983114
H    -4.658205    -5.171582    -1.596783
O    -5.360050    -4.818847    -1.022653
H    -5.147789    -5.175518    -0.139173
H     2.324320    -6.482644    -4.063916
O     1.987127    -6.155664    -3.209771
H     2.420616    -6.731472    -2.547684
H     0.466765    -3.378864    -4.023993
O     1.270119    -3.011587    -4.445647
H     0.951500    -2.637829    -5.293530
H     1.960739    -1.772544     2.964149
O     2.111536    -2.704181     2.747485
H     1.428533    -2.912199     2.075515
H    -3.014685    -1.807962    -3.226859
O    -2.591898    -0.921954    -3.159440
H    -3.246697    -0.275102    -3.478154
H    -3.188265     4.967260     1.077971
O    -3.969700     5.341913     0.623979
H    -4.384800     5.898568     1.331139
H     0.877193     2.238704     2.586508
O     0.976709     2.235607     1.615238
H     1.704071     1.613366     1.449347
H     0.194413     5.650278    -0.756579
O     0.716372     6.312902    -1.264028
H     0.858973     7.111396    -0.706412
H     0.345415     7.021736     2.595475
O    -0.016699     6.643640     1.776943
H     0.647038     5.973296     1.514202
H    -2.484175     0.201917     3.327094
O    -2.709314    -0.613425     3.828603
H    -1.949424    -0.658108     4.450470
H    -0.957621     0.595102     5.981252
O    -0.672644     0.076168     5.211056
H     0.026224    -0.543857     5.500039
H     0.702652    -5.010030     1.955182
O     0.154953    -5.118791     2.755925
H     0.303333    -6.036575     3.034930
H    -2.125534    -8.096123     0.416994
O    -1.803169    -7.609885     1.203250
H    -2.589467    -7.299795     1.660072
H    -0.374101     6.861056    -2.321397
O    -1.120135     7.282429    -2.820146
H    -1.910355     7.155481    -2.257030
H    -1.111318     4.300951     0.571596
O    -0.738149     4.363439    -0.324268
H    -1.444734     4.123629    -0.957432
H    -4.410174     2.734035     3.499789
O    -4.408901     2.901751     4.464898
H    -4.493608     2.017848     4.871723
H     1.916455    -3.725873     4.125775
O     1.720299    -4.177537     4.974669
H     2.297610    -3.718480     5.610710
H     4.685498    -3.205214     0.829163
O     4.524763    -3.131512    -0.136954
H     3.666532    -2.653109    -0.222693
H    -2.723145    -0.751456    -1.366422
O    -3.050812    -0.483456    -0.491448
H    -3.850862     0.043420    -0.697526
H    -1.615111    -0.757419    -4.645219
O    -1.107378    -0.540281    -5.448298
H    -0.397463     0.055298    -5.161370
H     1.795099    -1.717101    -3.391122
O     1.887613    -0.971958    -2.766019
H     1.110760    -0.393857    -2.896197
H     3.661995    -3.132565     2.539633
O     4.621651    -3.359415     2.479921
H     4.671846    -4.322830     2.585218
H     3.418462    -6.139029     3.100934
O     3.776316    -5.934093     2.202014
H     3.039005    -5.589510     1.658201
H    -3.340943     1.614672    -4.187126
O    -4.186254     1.144108    -3.997923
H    -4.404234     1.287884    -3.041103
H    -5.080537     4.142619     0.062198
O    -5.519675     3.277026    -0.042915
H    -6.449776     3.397476    -0.325260
H     6.733411    -1.192981    -1.372359
O     5.960849    -1.044347    -0.820601
H     5.541702    -1.912220    -0.624863
H     4.592716    -3.175806    -2.486044
O     3.724897    -3.003085    -2.901465
H     3.728060    -3.619777    -3.659380
H     4.134784    -2.489211     5.825294
O     3.832660    -3.154481     6.471933
H     4.356678    -3.949456     6.243216
H    -0.753168     6.318682     5.077513
O    -1.350062     6.893135     5.617143
H    -1.362526     7.771418     5.178121
H     4.698625    -0.145792    -1.475217
O     3.931797     0.397664    -1.737123
H     3.239070    -0.201494    -2.069221
H    -0.737909     4.524766    -4.038726
O    -1.520192     5.068670    -4.246005
H    -1.368463     5.934351    -3.821460
H     0.662604     3.200679    -2.661736
O     0.670579     3.579313    -3.569435
H     0.717700     2.817148    -4.156612
H    -5.389710    -5.202027     1.768222
O    -4.693348    -5.796417     1.411889
H    -3.852629    -5.381655     1.684048
H     7.881501    -1.696523    -4.044182
O     7.623173    -1.385158    -3.143979
H     7.137268    -0.540433    -3.299035
H     3.699304    -5.071918    -5.310764
O     4.461750    -4.700257    -4.828272
H     4.845427    -5.412975    -4.284178
H    -3.789406     0.001550     4.919982
O    -4.387244     0.463941     5.556653
H    -5.049386    -0.193490     5.845592
H     3.459038    -5.952753    -0.542863
O     4.332651    -5.705581    -0.858314
H     4.409439    -4.743777    -0.712062
H     5.001699    -0.339331    -4.169712
O     4.466097    -1.049563    -4.561299
H     4.139129    -1.634031    -3.844866
H    -1.170114     1.573168    -3.945121
O    -1.820025     2.195054    -4.329569
H    -1.461902     2.528401    -5.174985
H     4.880620    -6.329589    -2.337758
O     5.213465    -6.652859    -3.203967
H     6.031050    -7.134857    -3.018200
H     8.736990    -5.101040    -2.936117
O     8.045070    -5.519639    -2.379098
H     8.079104    -6.476714    -2.483632
H     2.340592     4.708204     0.450525
O     1.759300     4.689567     1.220072
H     1.402534     3.769192     1.297234
H    -4.421966    -2.649380     4.211805
O    -5.315397    -2.307302     4.010612
H    -5.177087    -1.525592     3.436204
H    -5.850512    -3.202361     1.296343
O    -6.314006    -3.760455     1.963316
H    -6.125983    -3.326832     2.814857
H     1.699671     3.485850     6.867937
O     1.050858     3.955900     6.314831
H     0.275421     4.115612     6.893263
H     4.967651    -2.224744     3.642962
O     4.975821    -1.535302     4.344089
H     4.190224    -0.960051     4.155096
H     2.351888    -5.605174     4.806454
O     2.762822    -6.481766     4.554768
H     2.029169    -7.074679     4.371344
H     2.255958    -4.511713    -6.810472
O     2.086157    -5.001634    -5.995900
H     1.821520    -4.311633    -5.339200
H     6.435767    -4.116302    -0.520338
O     7.188143    -4.521292    -0.057373
H     7.695717    -4.942517    -0.778901
H    -1.726155     4.464732     7.701628
O    -0.828110     4.557525     8.089919
H    -0.643468     5.516166     8.115248
H    -5.112996     5.701376    -5.597581
O    -4.505884     4.937515    -5.619212
H    -3.748278     5.152589    -6.184472
H     3.282541    -2.520488    -8.452069
O     3.194108    -3.054595    -7.651790
H     4.070587    -3.031937    -7.222590
H    -0.653814     8.824067    -2.270875
O    -0.530580     9.651357    -1.750257
H     0.231346     9.475241    -1.173520
H     2.000134    -0.841415     5.063819
O     1.475121    -1.363806     5.707366
H     1.629553    -0.956683     6.568291
H     5.205817    -2.024796    -5.706141
O     5.551766    -2.790245    -6.229494
H     5.276977    -3.581069    -5.713819
H     5.691313    -5.236177     4.662879
O     5.160135    -5.171409     5.486838
H     4.444937    -5.809401     5.387089
H    -3.976911     1.122591     6.998108
O    -3.783135     1.596787     7.842476
H    -4.658922     1.983334     8.103937
H    -1.845474     9.609459    -0.737139
O    -2.706219     9.482581    -0.263352
H    -3.316811     10.112288    -0.650156
H    -5.945051     4.692168    -2.942477
O    -6.853707     4.574335    -3.287144
H    -6.763496     3.873366    -3.965709
H     0.088337    -7.070778    -1.169920
O     0.552026    -7.508312    -0.422806
H    -0.127668    -7.704391     0.225181
H    -7.635328     3.793059    -1.979947
O    -7.897272     3.204694    -1.241171
H    -7.754896     2.296639    -1.582698
H     3.934926    -0.262383     7.618660
O     3.945484     0.466241     6.960104
H     4.860209     0.645627     6.697311
H     2.261653     5.788580    -1.177889
O     3.196982     5.494998    -1.064099
H     3.373486     4.956354    -1.858269
H     6.544565    -5.944960     0.651969
O     6.175175    -6.681454     1.185094
H     5.270174    -6.404454     1.410308
H    -3.869453     4.707246     7.778291
O    -3.303091     4.244303     7.118972
H    -3.500511     3.301533     7.226137
H     5.754888    -7.959191     0.112701
O     5.466770    -8.644747    -0.526160
H     4.638077    -8.317931    -0.920402
H    -0.566962     2.034853     7.690987
O    -1.192415     1.941226     6.952315
H    -2.065228     1.815602     7.345417
H    -6.385617    -0.126811     1.048513
O    -6.704963    -0.208463     0.135181
H    -7.623974    -0.478418     0.151716
H    -5.375774    -3.066753    -0.608126
O    -5.123252    -2.365958     0.019133
H    -5.692739    -1.592345    -0.167157
H     4.319654     5.565772     0.322233
O     4.653679     5.664219     1.227599
H     3.959579     6.173698     1.681357
H    -9.046122    -1.741113    -2.271820
O    -8.498361    -1.541789    -1.485152
H    -8.626510    -2.279698    -0.849114
H    -5.521358     3.478847    -5.533773
O    -6.039291     2.767614    -5.120741
H    -5.373266     2.180858    -4.707995
H     3.180795    -0.887536    -5.666792
O     2.324961    -1.006100    -6.133095
H     2.410186    -1.854111    -6.608367
H     8.114714    -1.352126    -6.039092
O     8.121982    -2.217018    -5.584290
H     7.265681    -2.615845    -5.836302
H     7.622705     0.989185    -6.315518
O     7.433339     0.141760    -6.730374
H     6.451976     0.092664    -6.767299
H    -7.865771    -3.696649     0.907997
O    -8.543731    -3.587676     0.223516
H    -8.445973    -4.345943    -0.379708
H    -2.403628     8.727938     1.299274
O    -2.253758     8.137588     2.051067
H    -1.483641     7.584639     1.827569
H    -4.442387     6.423752     3.497662
O    -4.612264     6.851327     2.641909
H    -3.848532     7.437222     2.503573
H     3.403251     3.442691    -3.580046
O     3.250578     4.411836    -3.484968
H     2.285778     4.477478    -3.592689
H    -6.117501    -1.601603    -3.459114
O    -6.201032    -2.182370    -2.676311
H    -6.985093    -1.875735    -2.167432
H     6.458232     1.029201     4.743644
O     6.077665     1.580310     5.442968
H     6.265005     2.494904     5.139070
H     1.363547     1.724804    -5.829554
O     1.168257     1.127513    -5.076601
H     1.531304     0.264775    -5.348029
H    -2.491195     2.935478     10.478984
O    -2.279654     2.028669     10.202170
H    -2.879593     1.831371     9.470977
H     7.607673    -0.536753     3.090969
O     6.851060     0.030898     3.262159
H     6.166867    -0.564514     3.649105
H    -5.667251    -8.056462    -0.731243
O    -4.932545    -8.126954    -0.084843
H    -4.936106    -7.310834     0.438962
H    -5.177724    -0.112872    -4.728670
O    -5.795178    -0.823758    -4.970106
H    -6.632966    -0.381112    -5.167592
H     1.891045    -0.192809    -7.525698
O     1.690153     0.280849    -8.368727
H     2.266792    -0.123502    -9.022407
H     4.873259    -1.386469    -9.315848
O     3.948373    -1.156363    -9.597934
H     3.928486    -1.272224    -10.547229
H     7.566679    -2.597592     4.177244
O     7.713069    -2.630865     3.215063
H     7.213454    -3.417266     2.942718
H     6.710051    -5.915008     2.666403
O     6.772914    -5.241412     3.369411
H     7.648386    -5.328821     3.786459
H    -1.817924     8.933788     3.503991
O    -1.570589     9.236436     4.403105
H    -2.419503     9.368785     4.858316
H    -7.389046     1.576430    -5.261269
O    -7.964387     0.832182    -5.017767
H    -8.865908     1.232224    -4.941399
H     6.927065    -1.079627    -8.414555
O     6.344669    -1.799724    -8.679836
H     6.116221    -2.251111    -7.848879
H    -1.671279     6.248872    -7.021502
O    -2.069725     5.423293    -6.749694
H    -1.821807     5.290492    -5.786181
H     0.003174     3.271891     9.021280
O     0.191913     2.346528     9.264137
H    -0.603097     2.088947     9.780004
H     6.753196    -2.787819    -2.718361
O     6.222219    -3.532385    -2.378622
H     6.690040    -4.342991    -2.627258
H    -4.080060    -3.067362    -4.962461
O    -4.233592    -2.952694    -5.927121
H    -4.780498    -2.159304    -5.981995
H     1.922687     2.412916     8.551339
O     2.666234     2.647359     7.980598
H     3.104314     1.803216     7.730691
H    -6.913584    -5.200871    -1.419712
O    -7.829254    -5.469279    -1.666080
H    -7.962283    -5.064913    -2.548294
H    -3.827613     5.239818     5.695973
O    -3.794097     6.009103     5.106505
H    -2.859964     6.303109     5.201640
H    -7.886407     0.090487    -1.979963
O    -7.395818     0.814512    -2.391779
H    -7.623761     0.805681    -3.345148
H     5.836166     0.115481     0.404738
O     5.615478     0.835621     1.027913
H     6.119248     0.635487     1.842030
H    -6.215952     3.292712     7.391390
O    -6.087578     2.772002     8.218432
H    -6.689519     2.012146     8.128946
H     2.269494    -8.082009    -0.869527
O     2.947367    -8.068519    -1.564910
H     2.722349    -8.780978    -2.179894
H    -2.747430    -3.954580    -6.217179
O    -1.994287    -4.521854    -5.986267
H    -1.718144    -4.232309    -5.088419
H    -5.644895     3.747584     5.304543
O    -6.293193     4.142844     5.923335
H    -6.130461     5.087048     5.910609
H    -1.025010    -7.115084    -3.188561
O    -0.552108    -6.446781    -2.658854
H     0.355408    -6.377229    -3.039567
H     4.446515     1.997204     5.111343
O     3.511511     2.256489     4.977236
H     3.119585     2.277550     5.853134
H     4.100171     4.636543     6.308307
O     4.191412     5.362011     5.685711
H     3.622571     5.125221     4.915102
H     2.767017     3.605133     3.917180
O     2.584036     4.544986     3.753565
H     2.466694     4.644581     2.787369
H     9.392047     0.198163    -1.076875
O     8.585909     0.360122    -0.583169
H     8.409484    -0.460205    -0.092679
H    -2.102588     5.292911     10.650995
O    -2.824949     4.663934     10.880654
H    -3.044309     4.840155     11.795797
H     7.968713    -3.024170     0.312458
O     8.390451    -2.178241     0.568716
H     8.324918    -2.175534     1.531281
H     5.368620     3.647944     3.523702
O     6.029017     3.916105     4.184363
H     5.612970     4.625749     4.695795
H    -4.210368     4.999418     9.783488
O    -4.842787     5.151695     9.061139
H    -5.455652     4.403925     9.057707
H    -7.014508    -3.472973    -3.505623
O    -7.635328    -4.083493    -3.955381
H    -7.114438    -4.524550    -4.658324
H     0.026880     6.101413     10.773276
O    -0.838408     6.431240     10.526348
H    -0.722704     6.864097     9.661108
H     2.590003     1.493800    -4.111863
O     3.468733     1.845111    -3.872356
H     3.788113     1.328765    -3.102413
H    -6.977504    -0.234605     7.206778
O    -7.484951     0.544186     7.488186
H    -8.108435     0.729088     6.784746
H    -2.752845    -9.877191    -0.861358
O    -2.688841    -8.935292    -1.019366
H    -3.594538    -8.568532    -0.778260
H    -10.066792     3.086542    -4.905936
O    -10.184613     2.168615    -4.627030
H    -10.400629     2.250984    -3.677208
H    -2.080571    -3.037720     4.594550
O    -2.954475    -3.480217     4.665878
H    -2.947525    -4.095998     3.907830
H    -0.187537    -7.994601     2.460306
O     0.639770    -7.785898     2.907191
H     1.356644    -8.081837     2.318909
H     6.564808    -2.291005     5.978303
O     7.148910    -3.051448     5.886641
H     6.544058    -3.805479     5.861016
H    -5.276205    -2.019025     6.928834
O    -5.952859    -1.520858     6.445609
H    -5.936994    -1.895940     5.535497
H     0.839269     3.038376    -7.118843
O     1.756609     2.706806    -7.175235
H     1.742364     1.960555    -7.802559
H    -3.952798     8.739890     6.678308
O    -3.951166     8.739379     5.720937
H    -4.076575     7.812380     5.451536
H    -2.052844     10.313836    -2.728327
O    -2.954311     10.496561    -3.030034
H    -2.882041     11.131878    -3.741667
H     9.403232    -4.084380     4.031753
O     9.116479    -4.758448     4.656023
H     8.698492    -4.282774     5.382601
H    -0.739641    -5.992587    -5.863311
O    -0.036793    -6.560243    -5.530421
H     0.799200    -6.099171    -5.747132
H     1.829699     8.265365     0.670362
O     1.526760     8.588901    -0.206792
H     2.341620     8.627382    -0.736927
H     3.501202     2.932200    -6.665885
O     4.328438     2.640380    -6.257000
H     4.082745     2.365371    -5.348646
H     3.737252     7.116948    -1.225678
O     3.943776     8.052849    -1.437570
H     4.313316     7.997990    -2.330810
H     4.396039    -0.003355    -7.920639
O     4.772908     0.140908    -7.050790
H     4.591926     1.072579    -6.805588
H     6.030090     1.922050    -0.480193
O     6.596079     2.114965    -1.241279
H     7.420137     1.634329    -1.047502
H     6.675767    -8.441834    -1.631465
O     7.311922    -8.230079    -2.367422
H     7.677981    -9.063950    -2.657229
H    -5.306583    -5.780513    -5.431197
O    -5.923096    -5.107323    -5.744697
H    -5.371213    -4.339203    -5.980000
H     0.683344     7.148564     7.606711
O    -0.218562     7.175106     7.965698
H    -0.773533     7.193350     7.148061
H    -8.900898    -2.825287    -4.120902
O    -9.420549    -2.016586    -3.951863
H    -9.133997    -1.350848    -4.580863
H    -2.416535    -5.989469    -2.166673
O    -3.294277    -5.701641    -2.434954
H    -3.481671    -6.074438    -3.321471
H    -2.991913    -5.893936    -5.432610
O    -3.592375    -6.504055    -4.961554
H    -3.111285    -7.325145    -4.796537
H    -1.387271     3.734335    -6.986512
O    -0.847717     2.977560    -6.716999
H    -1.085240     2.193712    -7.268463
H    -0.203161     0.426334    -8.225782
O    -1.099069     0.661800    -7.942157
H    -1.274952     0.136833    -7.145291
H    -10.421202     4.060164    -2.739716
O    -10.489346     3.280474    -2.173071
H    -9.660104     3.252507    -1.664092
H     4.580729     4.066743     1.718870
O     4.370382     3.144650     1.992208
H     5.087975     2.569787     1.713780
H     6.486161     1.393227    -4.225098
O     6.182503     0.768011    -3.532308
H     6.213470     1.262031    -2.687686
H     9.629439    -2.239662    -0.940967
O     9.906449    -2.024053    -1.840372
H     9.106496    -1.683701    -2.283252
H     9.965643    -3.330879    -3.111932
O     9.698017    -3.981492    -3.788037
H     9.305242    -3.472200    -4.507622
H    -7.707444    -8.571913    -1.695816
O    -6.969169    -7.977780    -1.822623
H    -7.346219    -7.064530    -1.811085
H     4.164682     6.077537    -3.818605
O     4.826300     6.778107    -3.732293
H     5.662134     6.323390    -3.595147
H     0.090468    -8.167512    -5.242195
O     0.113532    -9.150679    -5.112182
H     0.263750    -9.512960    -5.985409
H    -2.341403    -8.673483    -2.744277
O    -2.106864    -8.407837    -3.653116
H    -1.460939    -9.026312    -4.013100
H     2.173821    -10.818613    -3.527081
O     2.128305    -9.864094    -3.500682
H     1.343306    -9.591712    -4.026715
H     6.837947     3.326171    -4.576452
O     6.895672     2.649050    -5.278400
H     6.102585     2.784022    -5.819220
H    -3.573104    -3.737577     7.704145
O    -3.674743    -2.945712     7.177505
H    -3.432288    -3.187117     6.257367
H    -0.640587    -3.355710    -6.741786
O    -0.009589    -2.624913    -6.747443
H    -0.490807    -1.849603    -6.404691
H     0.568328     0.420719     8.769252
O     0.590326    -0.430567     8.314091
H    -0.351465    -0.653420     8.174798
H    -5.829446     7.374532    -4.249419
O    -6.332681     6.757086    -4.811741
H    -6.620419     6.025353    -4.221950
H    -4.273138     9.106515    -3.257529
O    -4.809408     8.310542    -3.152846
H    -4.401494     7.829387    -2.414728
H    -9.708207     5.807417    -4.647668
O    -10.242185     5.002811    -4.485783
H    -11.122558     5.204945    -4.804437
H     2.768279     6.492281     6.146026
O     1.807926     6.589122     6.241310
H     1.463948     5.675850     6.136367
H     4.808121     8.536426     0.090979
O     5.125254     8.535498     1.011966
H     5.531479     7.670689     1.141734
H     4.136120    -7.428104    -4.366447
O     3.377916    -7.711028    -4.909500
H     3.096884    -8.552637    -4.535381
H     0.380519     8.644426     4.241266
O     1.057576     7.999607     4.011849
H     1.283718     7.504858     4.825525
H     5.237506     4.186098    -3.158531
O     6.198924     4.154870    -3.105799
H     6.407181     3.572325    -2.358692
H    -2.557980    -1.561770     7.564588
O    -2.040665    -0.774076     7.790224
H    -2.666864    -0.145795     8.161403
H    -9.022913     7.946006    -4.143996
O    -8.959999     7.362532    -4.901658
H    -8.002995     7.198216    -5.037056
H     3.520948    -8.992120     1.062638
O     2.845287    -8.359972     1.313266
H     3.320605    -7.555733     1.594541
H     3.587741     8.159005     1.835385
O     2.796412     7.596343     1.945965
H     2.350764     7.830120     2.772969
N     3.390117    -1.545592     8.702336
H     2.432480    -1.419305     8.777814
H     3.503610    -2.282269     8.072204
