21

H    -8.991825    -1.814577    -2.259236
O    -8.492619    -1.589836    -1.452382
H    -8.585935    -2.337378    -0.811607
H    -7.324992     1.664725    -5.230092
O    -7.917033     0.924423    -4.994687
H    -8.810950     1.333544    -4.898566
H    -7.840259     0.103183    -1.899152
O    -7.370004     0.835836    -2.323140
H    -7.584868     0.843205    -3.278362
H    -10.229355     3.008511    -4.943509
O    -10.266938     2.136728    -4.526046
H    -10.326744     2.394049    -3.570316
H    -8.779306    -2.824251    -4.221662
O    -9.239636    -1.964045    -4.109872
H    -8.747141    -1.346701    -4.666621
H    -10.309164     4.200322    -2.749672
O    -10.414244     3.442494    -2.153461
H    -9.554846     3.390633    -1.679801
N    -11.660260    -0.462900    -5.389946
H    -11.353460     0.408184    -5.103033
H    -11.087855    -1.086195    -4.924657
