45
Coordinates from ORCA-job grain_mol_opt.QMRegion
  H   3.37491548710570      2.59061368399113      0.34598436239596
  O   3.26207846651436      2.64520063449121     -0.61725728515229
  H   3.54985029190284      1.77079113113566     -0.95735447232296
  H   2.19544353463372      4.70484490433622      0.42221361547787
  O   1.71851941684136      4.67339213223689      1.26110374136064
  H   1.32452850441171      3.76224612354168      1.31785574322662
  H   2.21510472744765      5.87094385513047     -1.26566696924749
  O   3.14446254927183      5.55619202947503     -1.11931973204168
  H   3.33933444042182      5.03258361809782     -1.92578338006229
  H   4.21163668999503      5.60693728072447      0.30966312004287
  O   4.60433670947935      5.67630902483398      1.20129060069492
  H   3.98546040723195      6.29408041731793      1.64092718183534
  H   6.49900302956374      1.06254682458078      4.87358621540378
  O   6.09155790744509      1.61288998644945      5.56048642343468
  H   6.24725248143359      2.52406287924545      5.22743254583083
  H   7.55968292868152     -0.64035357103304      3.16749411520537
  O   6.86791211749763      0.00476212793063      3.36116913500041
  H   6.15753986746313     -0.58140030110850      3.74275075604771
  H   5.81072738818362      0.17239273369515      0.37579707231808
  O   5.57046380710462      0.77626217372446      1.10307308194727
  H   6.04644812463486      0.44629735684712      1.89475738503705
  H   2.71201011148450      3.57500360857078      4.04207278830259
  O   2.55271615397494      4.51505863036401      3.84832397254002
  H   2.52879272057265      4.60370614891027      2.87667576572186
  H   9.41141960792959      0.01835716748434     -1.10408409181492
  O   8.60080842894905      0.23045088147417     -0.62747350432688
  H   8.42611242793542     -0.57142546250462     -0.10133204952696
  H   5.32044859919988      3.61965670483283      3.59251246558599
  O   6.03486175817660      3.96673067157192      4.16642370616301
  H   5.58986498316311      4.66386775449377      4.68657101099800
  H   6.58610706002180      2.64946558782461     -0.45452572031156
  O   6.82939754409520      2.27074209818210     -1.31098092315086
  H   7.51646540049732      1.61358069998939     -1.08875436893335
  H   4.42398344287069      3.96268895626102      1.75498163392056
  O   4.28722921309974      3.04828329145596      2.07689002138250
  H   4.97888201905546      2.51796568720456      1.64939521731727
  H   4.66392190935267      8.62887043791595      0.01975254299726
  O   4.98987731191955      8.79349661108497      0.93233444516592
  H   5.61535691618785      8.07310645496820      1.07024332326039
  H   5.31330574484765      4.13625222769497     -3.28475447573776
  O   6.27022128122411      4.25388690931033     -3.22924133080125
  H   6.55561100320436      3.65528301585014     -2.51041278110879
  O   6.97275084864659      4.06066191260786      1.04118872298156
  H   7.17355206965088      3.88882357034181      1.96854795431249
  H   6.36118947678680      4.81175559261651      1.09202851660037
