33

H     7.807039     0.979485    -6.372393
O     7.510651     0.171501    -6.802146
H     6.529098     0.230238    -6.830775
H     3.247704     3.587670    -3.589278
O     3.069003     4.556056    -3.560823
H     2.090914     4.546090    -3.572248
H     2.486956     1.555546    -4.119575
O     3.361129     1.924183    -3.865212
H     3.695679     1.366335    -3.131822
H     0.675072     2.944402    -7.132339
O     1.605491     2.641883    -7.236384
H     1.576435     1.856823    -7.825049
H     3.263572     2.898953    -6.663731
O     4.167106     2.718008    -6.340175
H     4.014944     2.408131    -5.420205
H     4.431291     0.000415    -8.005457
O     4.781758     0.197564    -7.130458
H     4.503847     1.118906    -6.940898
H     6.539114     1.513017    -4.166847
O     6.179357     0.855866    -3.534592
H     6.212134     1.286874    -2.659086
H     4.155983     6.131459    -3.813843
O     4.912656     6.743668    -3.796656
H     5.533306     6.286492    -3.209568
H     7.538684     3.312503    -4.157418
O     7.395053     2.849079    -4.993774
H     6.895284     3.537893    -5.496675
H     5.357686     4.054446    -2.985125
O     6.203002     4.363054    -2.639866
H     6.400601     3.709011    -1.946135
N     5.924245     4.857410    -6.173662
H     5.677685     5.546097    -5.537455
H     5.133057     4.292528    -6.267717
