603

H     0.204281     3.038915    -0.691288
O     0.728010     2.373035    -1.186750
H     1.666857     2.502456    -0.913947
H    -0.056494    -1.297557     3.141344
O     0.331865    -0.596679     2.595160
H    -0.146432     0.215898     2.829989
H    -2.394646     2.414011    -0.543234
O    -2.180658     1.944743     0.280538
H    -2.195919     0.996546     0.056623
H    -4.649173     0.548526     2.181314
O    -4.965000    -0.385200     2.195458
H    -4.460609    -0.862673     1.528586
H     0.075748    -0.300801     0.941015
O    -0.124789    -0.063678     0.014774
H     0.214372     0.832795    -0.106182
H    -0.129990    -3.567061     3.769916
O    -0.409450    -2.737209     4.190615
H     0.238215    -2.565436     4.890745
H    -4.878077     2.531257     1.328495
O    -4.236465     2.123416     1.942088
H    -3.394875     2.106572     1.427465
H    -3.250720     3.899274    -2.217774
O    -2.510995     3.304355    -1.988376
H    -2.154704     3.015908    -2.848711
H    -0.108221    -3.797213     0.495515
O     0.230732    -2.978441     0.911620
H    -0.556726    -2.493667     1.225506
H    -2.360280    -1.533111     2.465397
O    -2.173089    -1.999379     1.624251
H    -2.433253    -1.412836     0.894969
H     2.081906    -1.433256    -1.135509
O     2.315241    -1.684148    -0.218177
H     1.528149    -2.113831     0.167383
H    -1.380126     1.831572     1.903017
O    -1.469718     1.434355     2.779409
H    -1.454263     2.146789     3.444224
H     0.218681    -2.696259    -1.579741
O    -0.537796    -2.085392    -1.633197
H    -0.358155    -1.359027    -0.999437
H    -3.423342    -2.923265    -0.392275
O    -2.706494    -3.414362    -0.814830
H    -1.997483    -2.782940    -1.034596
H     2.788334     0.143146     2.915581
O     2.888815    -0.038593     3.877366
H     2.980522     0.854284     4.281398
H    -3.531659     6.381944    -0.550188
O    -3.295636     7.044660    -1.251248
H    -3.154884     7.890215    -0.781527
H     3.913598     0.595138     1.169100
O     2.961438     0.416827     1.283230
H     2.724959    -0.337674     0.706350
H    -5.777132     0.840194    -1.603159
O    -4.866992     1.169387    -1.479596
H    -4.978240     1.997753    -0.968011
H    -1.206850     5.404289     2.199405
O    -1.830466     4.656026     2.083753
H    -1.906143     4.237329     2.946498
H     3.497468     2.775052     0.404503
O     3.252514     2.734410    -0.535707
H     3.577676     1.887724    -0.884850
H     1.503252    -4.688529    -2.261766
O     1.566896    -3.910239    -1.689935
H     2.361266    -3.449055    -2.041935
H    -0.918296    -0.080701    -2.557141
O    -0.287249     0.573882    -2.883181
H    -0.025310     1.155775    -2.146573
H     1.715767    -4.675195    -0.191274
O     1.824398    -5.311229     0.551944
H     1.362780    -6.123780     0.257139
H    -1.218523    -3.262091    -2.885851
O    -1.045861    -3.945273    -3.547005
H    -0.916431    -4.791887    -3.078087
H    -2.766412     3.314889     4.697975
O    -1.785242     3.314441     4.661640
H    -1.489666     2.913132     5.497184
H     0.971816     5.046220     4.060240
O     0.025498     5.277170     4.113439
H    -0.444715     4.473539     4.373343
H    -1.714932    -4.646201    -0.375718
O    -0.948182    -5.185449    -0.092455
H    -1.292766    -5.872413     0.487448
H    -3.924355     5.832351    -2.603963
O    -4.274242     4.997393    -2.932416
H    -4.121854     4.962225    -3.900984
H    -2.411018    -3.684597     1.933057
O    -2.427175    -4.588588     2.309351
H    -1.486597    -4.825083     2.447879
H    -4.688169    -2.981365    -2.897170
O    -3.836504    -3.212847    -3.305647
H    -3.502796    -4.005573    -2.840688
H     0.357042     1.387909     4.602109
O     0.859510     2.149593     4.266442
H     0.909933     2.808114     4.973562
H    -4.641215    -5.170648    -1.568193
O    -5.342422    -4.818068    -0.993112
H    -5.126551    -5.171543    -0.109210
H     2.336794    -6.473382    -4.051613
O     2.000433    -6.144536    -3.197825
H     2.438127    -6.716536    -2.534971
H     0.472140    -3.373187    -4.015591
O     1.272580    -3.004393    -4.441402
H     0.949939    -2.634905    -5.289498
H     1.983311    -1.740362     2.967313
O     2.138446    -2.671309     2.750437
H     1.451733    -2.886129     2.084859
H    -3.010404    -1.808266    -3.212857
O    -2.589692    -0.920859    -3.149933
H    -3.247386    -0.276779    -3.467974
H    -3.187364     4.978993     1.072945
O    -3.970412     5.351397     0.619904
H    -4.385061     5.908585     1.326935
H     0.886960     2.264272     2.576262
O     0.986670     2.260011     1.604882
H     1.713661     1.636666     1.440007
H     0.187931     5.664101    -0.773279
O     0.708454     6.326627    -1.282912
H     0.848582     7.127185    -0.727784
H     0.346016     7.045925     2.575058
O    -0.016596     6.665321     1.757946
H     0.647118     5.994569     1.496349
H    -2.463846     0.221067     3.335766
O    -2.683068    -0.592951     3.841746
H    -1.920755    -0.630947     4.461458
H    -0.871825     0.563495     6.016102
O    -0.598752     0.044739     5.240943
H     0.116665    -0.557559     5.525974
H     0.731654    -4.984254     1.970587
O     0.190764    -5.094251     2.776009
H     0.338399    -6.014201     3.048826
H    -2.095643    -8.083527     0.446879
O    -1.772306    -7.594619     1.231058
H    -2.557958    -7.284443     1.688905
H    -0.387663     6.869523    -2.339099
O    -1.135603     7.288167    -2.836832
H    -1.924348     7.160848    -2.271490
H    -1.110255     4.316430     0.562719
O    -0.739771     4.378040    -0.334401
H    -1.447487     4.133681    -0.964703
H    -4.397077     2.749956     3.504761
O    -4.393568     2.921036     4.469199
H    -4.474329     2.038060     4.879066
H     2.049043    -3.569185     4.230496
O     1.987289    -4.040425     5.084405
H     2.496969    -3.503440     5.712800
H     4.705097    -3.179161     0.818442
O     4.540072    -3.105173    -0.147278
H     3.680767    -2.628916    -0.228219
H    -2.715822    -0.745726    -1.356043
O    -3.041582    -0.475229    -0.481191
H    -3.843658     0.048659    -0.686528
H    -1.618265    -0.758460    -4.638520
O    -1.113557    -0.541334    -5.443622
H    -0.403707     0.055525    -5.159623
H     1.797945    -1.707171    -3.391442
O     1.890220    -0.958708    -2.770392
H     1.111153    -0.383877    -2.899454
H     3.683141    -3.108165     2.532723
O     4.642397    -3.334478     2.457567
H     4.700826    -4.294260     2.584660
H     3.452773    -6.106314     3.107570
O     3.805294    -5.906053     2.206156
H     3.066117    -5.561079     1.665351
H    -3.347630     1.611608    -4.181988
O    -4.191427     1.140022    -3.989283
H    -4.406908     1.285255    -3.032023
H    -5.080646     4.147697     0.064807
O    -5.517797     3.280810    -0.037115
H    -6.449193     3.398064    -0.316458
H     6.648581    -1.257924    -1.381382
O     5.897825    -1.062502    -0.813727
H     5.449398    -1.918945    -0.611083
H     4.602253    -3.154319    -2.491652
O     3.731518    -2.987920    -2.904347
H     3.735077    -3.608421    -3.659091
H     4.460535    -2.276176     5.601247
O     4.119550    -2.742058     6.395263
H     4.457229    -3.646120     6.313387
H    -0.743579     6.347349     5.062127
O    -1.339859     6.922644     5.601249
H    -1.355801     7.799398     5.159372
H     4.700601    -0.120939    -1.488422
O     3.929491     0.419924    -1.747201
H     3.240410    -0.183529    -2.077903
H    -0.749993     4.527917    -4.049075
O    -1.533862     5.069464    -4.256280
H    -1.383957     5.936516    -3.834103
H     0.657532     3.211487    -2.672596
O     0.664819     3.588494    -3.581296
H     0.708058     2.824444    -4.166405
H    -5.362441    -5.193075     1.799132
O    -4.665779    -5.786790     1.442265
H    -3.825127    -5.369680     1.710833
H     7.842741    -1.758626    -4.105940
O     7.668279    -1.388543    -3.202002
H     7.184986    -0.541427    -3.364828
H     3.705198    -5.064534    -5.306669
O     4.467539    -4.687829    -4.828511
H     4.856088    -5.396777    -4.282486
H    -3.763858     0.023112     4.932796
O    -4.363889     0.486709     5.566511
H    -5.022254    -0.172333     5.860390
H     3.480961    -5.929499    -0.534625
O     4.351684    -5.681566    -0.857019
H     4.428840    -4.719332    -0.712751
H     4.992898    -0.335732    -4.182002
O     4.455339    -1.043657    -4.576536
H     4.134427    -1.629382    -3.857944
H    -1.176762     1.575290    -3.945800
O    -1.827902     2.195769    -4.330817
H    -1.472430     2.526316    -5.178318
H     4.897916    -6.308218    -2.335156
O     5.227540    -6.634401    -3.201557
H     6.048579    -7.111168    -3.017188
H     8.748039    -5.069372    -2.949439
O     8.057502    -5.490307    -2.390324
H     8.098397    -6.447254    -2.490751
H     2.340399     4.729383     0.432294
O     1.762355     4.712693     1.204081
H     1.406894     3.791551     1.284851
H    -4.392635    -2.631009     4.232634
O    -5.287694    -2.292975     4.032287
H    -5.153478    -1.512025     3.455942
H    -5.829689    -3.196085     1.322542
O    -6.290208    -3.753240     1.992325
H    -6.100045    -3.317142     2.842173
H     1.706053     3.483204     6.844892
O     1.081094     3.997944     6.312498
H     0.299157     4.149599     6.885886
H     5.022153    -2.152188     3.594098
O     5.041485    -1.434230     4.258697
H     4.229428    -0.879011     4.102257
H     2.419312    -5.562142     4.825291
O     2.800022    -6.445615     4.565171
H     2.055619    -7.028395     4.392730
H     2.255248    -4.509776    -6.804393
O     2.087783    -4.997941    -5.988371
H     1.825163    -4.306866    -5.332192
H     6.454907    -4.084204    -0.529145
O     7.208090    -4.487807    -0.066783
H     7.716250    -4.907878    -0.788584
H    -1.705540     4.499966     7.691164
O    -0.805897     4.600016     8.074245
H    -0.626632     5.559447     8.097659
H    -5.133179     5.689801    -5.599008
O    -4.524010     4.927545    -5.620089
H    -3.768914     5.142559    -6.188631
H     3.273100    -2.520942    -8.454854
O     3.187308    -3.052433    -7.652765
H     4.064793    -3.027446    -7.225234
H    -0.671975     8.832225    -2.293844
O    -0.548413     9.661655    -1.776653
H     0.214764     9.488673    -1.200735
H     2.089012    -0.898605     5.195579
O     1.517509    -1.423923     5.784761
H     1.614542    -1.078875     6.681686
H     5.199708    -2.014561    -5.714918
O     5.547939    -2.778700    -6.239268
H     5.278941    -3.569621    -5.720599
H     5.723949    -5.194908     4.664222
O     5.202861    -5.110416     5.491922
H     4.482777    -5.744201     5.408105
H    -3.950851     1.152606     7.004819
O    -3.757485     1.629571     7.847731
H    -4.633599     2.013737     8.110507
H    -1.860877     9.619696    -0.759186
O    -2.719694     9.492018    -0.282428
H    -3.333234     10.118913    -0.669137
H    -5.955285     4.686077    -2.938528
O    -6.864464     4.565619    -3.280785
H    -6.774556     3.862592    -3.957310
H     0.110433    -7.057569    -1.149530
O     0.577168    -7.492403    -0.402905
H    -0.099819    -7.687635     0.248084
H    -7.640615     3.785824    -1.968963
O    -7.899020     3.199162    -1.227669
H    -7.755454     2.290335    -1.566731
H     4.000075    -0.873991     6.965740
O     4.007205     0.090225     6.956234
H     4.817961     0.380724     6.522108
H     2.252847     5.807517    -1.198015
O     3.190502     5.517826    -1.090192
H     3.361439     4.973637    -1.881399
H     6.571347    -5.909948     0.647454
O     6.204636    -6.647117     1.182126
H     5.300485    -6.371154     1.411111
H    -3.849272     4.736544     7.775868
O    -3.283550     4.274379     7.115651
H    -3.474812     3.330639     7.227409
H     5.784010    -7.928603     0.118389
O     5.493940    -8.618092    -0.515784
H     4.664776    -8.292718    -0.909870
H    -0.533825     2.054052     7.682000
O    -1.168973     1.988749     6.948648
H    -2.036063     1.845323     7.347558
H    -6.372079    -0.122667     1.067026
O    -6.694803    -0.206707     0.155028
H    -7.612860    -0.479598     0.175759
H    -5.360758    -3.064891    -0.583625
O    -5.108364    -2.361448     0.040724
H    -5.680178    -1.589829    -0.146323
H     4.314595     5.593324     0.293845
O     4.654581     5.696369     1.196439
H     3.960490     6.203129     1.653197
H    -9.039298    -1.752477    -2.240530
O    -8.489762    -1.549435    -1.456084
H    -8.614077    -2.285891    -0.817536
H    -5.536035     3.466397    -5.527806
O    -6.051268     2.755452    -5.111044
H    -5.382823     2.171226    -4.698465
H     3.172280    -0.883884    -5.671058
O     2.317019    -1.000375    -6.140207
H     2.401076    -1.851002    -6.610934
H     8.151244    -1.520071    -6.115055
O     8.103874    -2.368832    -5.643586
H     7.208115    -2.692133    -5.883641
H     7.643975     0.964595    -6.793996
O     7.370396     0.050890    -6.915297
H     6.382570     0.076214    -6.860860
H    -7.845005    -3.695804     0.941257
O    -8.525256    -3.590514     0.258436
H    -8.427313    -4.350352    -0.342796
H    -2.410821     8.742205     1.281437
O    -2.256940     8.154530     2.034484
H    -1.486512     7.602478     1.810091
H    -4.438191     6.439336     3.492171
O    -4.611143     6.864350     2.635692
H    -3.849166     7.451605     2.493964
H     3.392649     3.453571    -3.600116
O     3.242774     4.424534    -3.507447
H     2.277121     4.489333    -3.610766
H    -6.114525    -1.609391    -3.436685
O    -6.194426    -2.188016    -2.651988
H    -6.977693    -1.881819    -2.141646
H     6.485232     1.070356     4.711583
O     6.091749     1.610466     5.414258
H     6.279845     2.528362     5.121956
H     1.352572     1.727329    -5.838233
O     1.161482     1.132405    -5.082659
H     1.523862     0.268856    -5.353034
H    -2.460358     2.975656     10.476864
O    -2.247393     2.068165     10.203837
H    -2.846457     1.866950     9.473002
H     7.643801    -0.470168     3.047933
O     6.892703     0.101060     3.227476
H     6.204699    -0.504313     3.605436
H    -5.640988    -8.055334    -0.691277
O    -4.904507    -8.122484    -0.046612
H    -4.908023    -7.304725     0.474624
H    -5.181849    -0.121907    -4.713333
O    -5.798314    -0.834858    -4.951056
H    -6.637779    -0.394832    -5.147204
H     1.878583    -0.192964    -7.530948
O     1.675725     0.279882    -8.374335
H     2.248905    -0.127308    -9.029264
H     4.858635    -1.385522    -9.326063
O     3.933306    -1.154172    -9.606290
H     3.909490    -1.277230    -10.554607
H     7.586947    -2.547780     4.169298
O     7.731934    -2.581712     3.209656
H     7.240681    -3.373058     2.936562
H     6.745098    -5.873845     2.660447
O     6.806110    -5.199572     3.362493
H     7.684301    -5.280683     3.776308
H    -1.819160     8.955891     3.483784
O    -1.569378     9.261900     4.381069
H    -2.417111     9.393038     4.838958
H    -7.398593     1.560613    -5.244360
O    -7.971490     0.815692    -4.997267
H    -8.873716     1.213773    -4.919323
H     6.915597    -1.078194    -8.431636
O     6.330121    -1.796850    -8.693698
H     6.106529    -2.248067    -7.861004
H    -1.697447     6.241910    -7.034108
O    -2.092137     5.415500    -6.759423
H    -1.841505     5.285788    -5.796307
H     0.025579     3.326366     9.009845
O     0.224802     2.407219     9.265345
H    -0.571849     2.142053     9.773863
H     6.764714    -2.758317    -2.726017
O     6.232610    -3.504268    -2.392900
H     6.706456    -4.313713    -2.634478
H    -4.078150    -3.074841    -4.941748
O    -4.234957    -2.962960    -5.906252
H    -4.784058    -2.171121    -5.961411
H     2.005624     2.201375     8.447698
O     2.667164     2.314716     7.755584
H     3.090913     1.445209     7.639687
H    -6.896006    -5.204879    -1.384585
O    -7.811857    -5.475899    -1.627569
H    -7.948304    -5.074424    -2.510551
H    -3.814149     5.263474     5.691750
O    -3.784019     6.031495     5.100217
H    -2.850287     6.327307     5.191862
H    -7.882844     0.082810    -1.957116
O    -7.395460     0.806920    -2.372630
H    -7.626100     0.794480    -3.325266
H     5.848934     0.150065     0.388387
O     5.615980     0.863978     1.014648
H     6.136686     0.673776     1.821859
H    -6.194653     3.316361     7.398517
O    -6.063869     2.799171     8.227341
H    -6.662967     2.036670     8.141221
H     2.296082    -8.062966    -0.852015
O     2.970370    -8.049315    -1.550770
H     2.745549    -8.764798    -2.162156
H    -2.747330    -3.962325    -6.197610
O    -1.991880    -4.526850    -5.967666
H    -1.713973    -4.234741    -5.071141
H    -5.629093     3.765774     5.309855
O    -6.277319     4.161985     5.928205
H    -6.115003     5.106226     5.913769
H    -1.008264    -7.110088    -3.165744
O    -0.536096    -6.438884    -2.639239
H     0.370976    -6.368980    -3.021417
H     4.462071     2.035566     5.105061
O     3.519931     2.275076     4.987279
H     3.137812     2.289834     5.870119
H     4.125708     4.676960     6.276624
O     4.203448     5.406853     5.657819
H     3.634072     5.164546     4.888837
H     2.776170     3.633441     3.903359
O     2.597091     4.573143     3.736138
H     2.474594     4.669856     2.770056
H     9.250792     0.408550    -0.996953
O     8.533749     0.486874    -0.359867
H     8.432142    -0.411122     0.002747
H    -2.075123     5.335550     10.641282
O    -2.795579     4.706122     10.875008
H    -3.011727     4.883671     11.790647
H     7.992200    -2.977245     0.288493
O     8.407709    -2.125534     0.533689
H     8.350713    -2.115813     1.496188
H     5.380141     3.684210     3.499198
O     6.039256     3.954132     4.160452
H     5.625659     4.669685     4.664947
H    -4.185010     5.033545     9.780989
O    -4.820246     5.182846     9.060505
H    -5.430805     4.433148     9.060255
H    -7.007202    -3.483077    -3.475143
O    -7.628007    -4.096050    -3.921563
H    -7.108026    -4.538095    -4.624591
H     0.052373     6.147055     10.755412
O    -0.813227     6.477262     10.510105
H    -0.700252     6.907048     9.643049
H     2.582970     1.505534    -4.124342
O     3.460790     1.860665    -3.886669
H     3.784656     1.342884    -3.118224
H    -6.946636    -0.213699     7.227315
O    -7.455820     0.564244     7.508178
H    -8.081096     0.745872     6.805476
H    -2.722359    -9.869743    -0.824485
O    -2.661436    -8.928174    -0.985625
H    -3.567191    -8.562984    -0.742813
H    -10.078699     3.065589    -4.885576
O    -10.193657     2.148166    -4.603866
H    -10.407072     2.232558    -3.653636
H    -2.043793    -3.014746     4.611618
O    -2.918169    -3.455659     4.683847
H    -2.912954    -4.074453     3.928339
H    -0.151563    -7.972195     2.482147
O     0.675328    -7.759832     2.928125
H     1.393038    -8.054862     2.340079
H     6.732994    -2.351219     6.366219
O     7.182981    -3.061264     5.903707
H     6.553875    -3.796812     5.866258
H    -5.244145    -1.995888     6.948664
O    -5.922526    -1.499270     6.466106
H    -5.908066    -1.877102     5.557222
H     0.827946     3.037636    -7.128302
O     1.745964     2.708007    -7.186566
H     1.729224     1.959509    -7.811385
H    -3.944294     8.766108     6.664694
O    -3.944470     8.762926     5.707325
H    -4.069181     7.834901     5.440959
H    -2.075384     10.317709    -2.751758
O    -2.978190     10.497329    -3.051230
H    -2.909843     11.130846    -3.764843
H     9.434925    -4.035140     4.010453
O     9.158345    -4.712072     4.635842
H     8.730366    -4.238440     5.360021
H    -0.734059    -5.994749    -5.844038
O    -0.029261    -6.560316    -5.511832
H     0.805275    -6.097997    -5.731571
H     1.820860     8.287630     0.642720
O     1.515162     8.608267    -0.234524
H     2.328440     8.647748    -0.766698
H     3.501851     2.938024    -6.678232
O     4.329857     2.651520    -6.266791
H     4.077634     2.372391    -5.360621
H     3.725436     7.138796    -1.257221
O     3.930824     8.074480    -1.471799
H     4.293310     8.020206    -2.367610
H     4.380798    -0.002275    -7.932043
O     4.763059     0.152899    -7.066288
H     4.574562     1.083651    -6.824364
H     5.918367     1.916732    -0.437313
O     6.435942     2.151178    -1.227570
H     7.291021     1.713320    -1.039250
H     6.698921    -8.415347    -1.626880
O     7.331180    -8.205407    -2.366459
H     7.699926    -9.039322    -2.652524
H    -5.299695    -5.792055    -5.398967
O    -5.918690    -5.121244    -5.712752
H    -5.369236    -4.352520    -5.951724
H     0.698433     7.190726     7.582496
O    -0.202159     7.217604     7.944399
H    -0.759942     7.230337     7.128487
H    -8.896784    -2.841482    -4.086841
O    -9.417973    -2.033495    -3.918967
H    -9.134491    -1.368992    -4.550650
H    -2.399561    -5.984596    -2.142321
O    -3.278854    -5.699788    -2.408924
H    -3.467852    -6.075888    -3.293650
H    -2.984618    -5.900413    -5.406806
O    -3.582635    -6.510387    -4.932563
H    -3.099153    -7.329790    -4.765899
H    -1.404523     3.727291    -6.993144
O    -0.860803     2.973551    -6.723562
H    -1.099060     2.187169    -7.271270
H    -0.218648     0.418921    -8.226272
O    -1.113985     0.653907    -7.940510
H    -1.287045     0.130243    -7.142121
H    -10.428999     4.044563    -2.721238
O    -10.493865     3.266324    -2.152242
H    -9.663104     3.241452    -1.645565
H     4.588468     4.096551     1.693751
O     4.378136     3.176476     1.971881
H     5.095017     2.598427     1.696884
H     6.338332     1.433004    -4.241088
O     6.162559     0.753046    -3.561071
H     6.058233     1.236546    -2.710981
H     9.656451    -2.269083    -0.996597
O     9.970017    -2.014250    -1.874404
H     9.172838    -1.631696    -2.299945
H     9.968663    -3.321382    -3.125488
O     9.702917    -3.966235    -3.809911
H     9.308161    -3.448618    -4.522229
H    -7.682950    -8.578374    -1.648416
O    -6.946453    -7.982969    -1.779499
H    -7.325463    -7.070546    -1.769382
H     4.144363     6.093712    -3.850543
O     4.804736     6.796518    -3.772038
H     5.641881     6.348150    -3.625168
H     0.103035    -8.166326    -5.218656
O     0.128229    -9.149079    -5.086171
H     0.278006    -9.513248    -5.958681
H    -2.319658    -8.670421    -2.712361
O    -2.089498    -8.407228    -3.623011
H    -1.442433    -9.024560    -3.982973
H     2.197451    -10.807876    -3.501948
O     2.149586    -9.853427    -3.478122
H     1.362545    -9.584239    -4.002540
H     6.601870     3.453402    -4.489193
O     6.812676     2.834806    -5.232459
H     6.030537     2.910510    -5.805257
H    -3.530913    -3.711438     7.723275
O    -3.648268    -2.924398     7.192750
H    -3.398827    -3.163824     6.274000
H    -0.643412    -3.360285    -6.730183
O    -0.015085    -2.627188    -6.740965
H    -0.497389    -1.852710    -6.397976
H     0.670901     0.479418     8.740390
O     0.677961    -0.235645     8.100152
H    -0.243884    -0.526487     8.015243
H    -5.849722     7.364948    -4.253562
O    -6.352884     6.744772    -4.812860
H    -6.637302     6.013883    -4.220287
H    -4.294436     9.103689    -3.270785
O    -4.828277     8.306569    -3.162699
H    -4.417486     7.828457    -2.424214
H    -9.725614     5.788031    -4.636535
O    -10.257191     4.982666    -4.470739
H    -11.139027     5.181748    -4.787264
H     2.781675     6.534723     6.116794
O     1.821637     6.630139     6.216368
H     1.479263     5.715967     6.116654
H     4.797711     8.564156     0.054070
O     5.119525     8.566971     0.973247
H     5.524547     7.701952     1.105475
H     4.149483    -7.414425    -4.357512
O     3.390151    -7.701199    -4.897315
H     3.112936    -8.542305    -4.519300
H     0.381918     8.673572     4.214970
O     1.060374     8.030174     3.985527
H     1.289631     7.538127     4.800011
H     5.084468     4.298231    -3.135161
O     6.047496     4.278344    -3.038907
H     6.202117     3.688636    -2.274949
H    -2.548262    -1.532238     7.570922
O    -2.038918    -0.737766     7.788786
H    -2.664837    -0.112482     8.164354
H    -9.043984     7.929366    -4.140524
O    -8.981748     7.344346    -4.897048
H    -8.024783     7.181586    -5.034480
H     3.554986    -8.963629     1.077991
O     2.877538    -8.333521     1.329104
H     3.351524    -7.526926     1.606803
H     3.582954     8.189612     1.803955
O     2.794146     7.624370     1.917091
H     2.348602     7.859205     2.743969
N     9.149285     1.951150    -3.090604
H     9.720672     2.723350    -3.065091
H     8.613978     2.078892    -3.882965
