33
Coordinates from ORCA-job grain_mol_opt.QMRegion
  H   6.65238222076504     -1.24515180360882     -1.34854463996289
  O   5.90010049050457     -1.05103030956282     -0.78244135975121
  H   5.45168700620518     -1.90807994814221     -0.58235523820843
  H   7.85592462941104     -1.74046619301980     -4.06922586837501
  O   7.67816099351954     -1.37181330648097     -3.16534901072264
  H   7.19472788496210     -0.52484772027392     -3.32857200733991
  H   8.17060519231928     -1.49874737434162     -6.07699629454092
  O   8.12252333450787     -2.34822140065797     -5.60688655744298
  H   7.22784370115737     -2.67203103393798     -5.85026015714408
  H   7.66316452622536      0.98652069459842     -6.75378278541844
  O   7.39083764590302      0.07275187247556     -6.87736976367095
  H   6.40281847185640      0.09707756005625     -6.82599719033464
  H   9.25237628400912      0.42384296392230     -0.95164260189354
  O   8.53309447387200      0.50045847264095     -0.31687897244755
  H   8.43079580408711     -0.39834865640668      0.04354813725594
  H   5.91648110819891      1.92777723228780     -0.40138706620085
  O   6.43653748886589      2.16375505067512     -1.18955073182715
  H   7.29137349320097      1.72643577582334     -0.99885110646377
  H   6.34902974268658      1.45005833711638     -4.20445404520694
  O   6.17173028886301      0.76889012880325     -3.52604083498766
  H   6.06444773766648      1.25093971683283     -2.67549557169008
  H   9.66012904321090     -2.25366610166463     -0.95487407535439
  O   9.97630684755669     -1.99732097744195     -1.83130705180499
  H   9.18019611553352     -1.61477531919480     -2.25884865806163
  H   6.61148779414562      3.47097053475699     -4.44877715729948
  O   6.82521544934239      2.85363118914240     -5.19224620880509
  H   6.04488103648843      2.92949141068299     -5.76747412049906
  H   5.08905498699561      4.31234132690775     -3.09825080179535
  O   6.05179163438906      4.29325287031543     -2.99901302065114
  H   6.20460818789286      3.70255382244299     -2.23546220422045
  O   9.15615555446044      1.96868509161591     -3.04457972048424
  H   8.62327752589865      2.09698262580458     -3.83848146219394
  H   9.72676224484059      2.74136633693464     -3.01625061310399
