21
Coordinates from ORCA-job grain_mol_opt.QMRegion
  H   4.21731500317697      5.49023249492385      0.38141369144047
  O   4.64757082280585      5.63741613605235      1.24539306148190
  H   3.98395048368183      6.17352213110206      1.72913356132771
  H   1.91937333888810      8.33196215976467      0.76865926295959
  O   1.56234739184742      8.57371923760780     -0.11226959313267
  H   2.34241589585723      8.60157126462500     -0.69053386702825
  H   3.76689925867805      7.08153811627576     -1.19607621750098
  O   4.00547604682735      7.99835469942719     -1.45050830132053
  H   4.32752676314027      7.86018899860514     -2.36228905233171
  H   5.51574942438936      8.14853121997253     -0.28626204684425
  O   6.12389327473770      7.98545290459049      0.46046545923574
  H   5.86419851692186      7.08816409792732      0.73897965511999
  H   0.35186104508828      8.57383638038297      4.38049677541197
  O   0.99529743250252      7.88812432632994      4.15768676812862
  H   1.20972699892830      7.40825117884204      4.98591397565577
  H   3.61771439828533      8.31571118847475      2.34613480532147
  O   2.89039026815782      7.67574654892751      2.16610976036676
  H   2.30335257324396      7.74285840128299      2.94510540213054
  O   5.03796988238941      9.28436596754663      2.56370266258465
  H   5.53172262303293      9.00382939229233      3.33989118259062
  H   5.53644325838302      8.89846581645686      1.79585997644084
