603

H     0.218484     3.039356    -0.695185
O     0.742869     2.369254    -1.184541
H     1.680630     2.498180    -0.908631
H    -0.076395    -1.300420     3.132298
O     0.319232    -0.600649     2.590096
H    -0.158750     0.213438     2.820901
H    -2.380721     2.422460    -0.562241
O    -2.174763     1.949994     0.262728
H    -2.191341     1.002700     0.035888
H    -4.657441     0.559571     2.146669
O    -4.975567    -0.373698     2.158345
H    -4.468804    -0.850930     1.493099
H     0.073473    -0.300931     0.933707
O    -0.120018    -0.065054     0.005968
H     0.218853     0.831950    -0.113998
H    -0.159247    -3.571101     3.757813
O    -0.439032    -2.741165     4.177942
H     0.204950    -2.571226     4.881842
H    -4.875469     2.543499     1.296519
O    -4.238388     2.132289     1.912691
H    -3.394453     2.114033     1.401333
H    -3.223962     3.911223    -2.237749
O    -2.486467     3.316901    -2.001229
H    -2.134724     3.017874    -2.862087
H    -0.118887    -3.797030     0.482857
O     0.220750    -2.980739     0.903049
H    -0.567089    -2.492736     1.211384
H    -2.375922    -1.529077     2.441390
O    -2.184596    -1.995403     1.601247
H    -2.439289    -1.407547     0.870722
H     2.088082    -1.437361    -1.132375
O     2.316315    -1.691897    -0.214362
H     1.524711    -2.117636     0.166503
H    -1.384579     1.832248     1.888797
O    -1.478004     1.434531     2.764815
H    -1.465528     2.146890     3.429686
H     0.224276    -2.695628    -1.587566
O    -0.531307    -2.084507    -1.644965
H    -0.353909    -1.356633    -1.012094
H    -3.425861    -2.913244    -0.423380
O    -2.708377    -3.406688    -0.842218
H    -1.996598    -2.776616    -1.057682
H     2.774315     0.131276     2.925627
O     2.870158    -0.051911     3.887599
H     2.960596     0.840770     4.292927
H    -3.507314     6.392289    -0.572417
O    -3.265320     7.056209    -1.269834
H    -3.124355     7.900078    -0.797465
H     3.910506     0.586146     1.181867
O     2.959581     0.404840     1.294960
H     2.723305    -0.346338     0.713617
H    -5.761137     0.859362    -1.640579
O    -4.852002     1.183634    -1.502134
H    -4.965213     2.013479    -0.994533
H    -1.201346     5.405009     2.189921
O    -1.826872     4.658763     2.071307
H    -1.908023     4.239812     2.933286
H     3.507411     2.765925     0.421224
O     3.263843     2.724590    -0.519014
H     3.595592     1.881452    -0.868831
H     1.506825    -4.690276    -2.266177
O     1.570098    -3.913683    -1.692142
H     2.366170    -3.452571    -2.039896
H    -0.901683    -0.073115    -2.569562
O    -0.256605     0.570979    -2.888930
H    -0.005209     1.158878    -2.153581
H     1.706855    -4.679859    -0.193710
O     1.810493    -5.317767     0.548723
H     1.346947    -6.127983     0.250632
H    -1.207218    -3.253879    -2.906039
O    -1.032977    -3.938393    -3.565794
H    -0.908889    -4.784897    -3.095550
H    -2.781632     3.317312     4.677598
O    -1.800276     3.313666     4.647517
H    -1.511034     2.910814     5.484417
H     0.965405     5.038908     4.063481
O     0.019519     5.272406     4.113325
H    -0.454512     4.469423     4.367960
H    -1.722295    -4.640233    -0.398625
O    -0.959132    -5.183197    -0.112117
H    -1.309628    -5.868818     0.465760
H    -3.888133     5.845131    -2.631288
O    -4.243425     5.011981    -2.957621
H    -4.085005     4.971185    -3.926053
H    -2.429846    -3.679457     1.906938
O    -2.450761    -4.584202     2.281641
H    -1.511819    -4.823176     2.426002
H    -4.675468    -2.964496    -2.936889
O    -3.823265    -3.201228    -3.341019
H    -3.494232    -3.992877    -2.871523
H     0.336239     1.381734     4.598325
O     0.845125     2.141052     4.267312
H     0.891397     2.799965     4.974355
H    -4.643147    -5.156208    -1.608627
O    -5.347408    -4.802768    -1.037934
H    -5.137532    -5.156750    -0.152791
H     2.345944    -6.475275    -4.053054
O     2.005699    -6.146769    -3.200760
H     2.437307    -6.720893    -2.535933
H     0.488833    -3.369277    -4.024694
O     1.294434    -3.005359    -4.445032
H     0.980050    -2.629932    -5.293045
H     1.963459    -1.749327     2.969427
O     2.118379    -2.680390     2.752412
H     1.434632    -2.892609     2.082750
H    -3.002826    -1.838063    -3.180074
O    -2.561737    -0.955852    -3.145316
H    -3.239348    -0.305825    -3.420175
H    -3.176509     4.986443     1.051797
O    -3.956251     5.361479     0.595422
H    -4.373163     5.919159     1.300346
H     0.881537     2.258693     2.577072
O     0.985884     2.254600     1.606312
H     1.712463     1.630612     1.443881
H     0.211057     5.663999    -0.774112
O     0.736805     6.325935    -1.279092
H     0.876032     7.125217    -0.722286
H     0.354536     7.041838     2.577335
O    -0.005468     6.662375     1.758632
H     0.658355     5.991025     1.498620
H    -2.479741     0.224267     3.313499
O    -2.704463    -0.589737     3.817429
H    -1.946067    -0.630429     4.441632
H    -0.902777     0.559409     6.003892
O    -0.626901     0.039697     5.230322
H     0.085145    -0.564463     5.519012
H     0.708857    -4.988340     1.961703
O     0.163521    -5.098161     2.764037
H     0.306514    -6.018947     3.036280
H    -2.118040    -8.078192     0.417918
O    -1.797724    -7.591660     1.204754
H    -2.585062    -7.278959     1.658009
H    -0.350742     6.873534    -2.341198
O    -1.094147     7.297493    -2.841220
H    -1.887063     7.168552    -2.282302
H    -1.099028     4.318248     0.552074
O    -0.721870     4.380044    -0.341934
H    -1.426165     4.138072    -0.978349
H    -4.406440     2.758578     3.474035
O    -4.408779     2.928393     4.438878
H    -4.494324     2.045159     4.846973
H     2.016653    -3.579434     4.230840
O     1.949835    -4.052492     5.083430
H     2.454773    -3.516407     5.716278
H     4.692887    -3.193460     0.835167
O     4.535964    -3.117403    -0.131865
H     3.677939    -2.638701    -0.218020
H    -2.706787    -0.735568    -1.381326
O    -3.037120    -0.468565    -0.506941
H    -3.835111     0.061044    -0.716078
H    -1.547800    -0.816932    -4.661184
O    -0.989893    -0.559871    -5.424128
H    -0.263242    -0.041410    -5.047534
H     1.817247    -1.707771    -3.389804
O     1.909692    -0.962251    -2.765746
H     1.131967    -0.384109    -2.895710
H     3.662196    -3.120505     2.543180
O     4.621221    -3.350863     2.473220
H     4.674233    -4.311077     2.599859
H     3.419699    -6.119977     3.113359
O     3.778700    -5.919650     2.214342
H     3.043692    -5.572144     1.669226
H    -3.322795     1.590981    -4.144754
O    -4.187878     1.145907    -3.937959
H    -4.377744     1.304063    -2.975853
H    -5.065558     4.162230     0.032291
O    -5.507530     3.297550    -0.068204
H    -6.434971     3.418682    -0.357507
H     6.749263    -1.182782    -1.358589
O     5.975594    -1.032615    -0.808980
H     5.554454    -1.899794    -0.613702
H     4.610387    -3.165819    -2.474663
O     3.744278    -2.993619    -2.893783
H     3.749658    -3.611903    -3.650182
H     4.424208    -2.294760     5.617227
O     4.078335    -2.760424     6.409049
H     4.412326    -3.665833     6.327791
H    -0.752484     6.343662     5.057471
O    -1.350194     6.920077     5.593922
H    -1.361254     7.797243     5.152542
H     4.715154    -0.134469    -1.468527
O     3.949690     0.409224    -1.733763
H     3.257255    -0.189893    -2.066746
H    -0.714767     4.531855    -4.056777
O    -1.493303     5.080063    -4.265486
H    -1.339117     5.945654    -3.843307
H     0.683359     3.211948    -2.673359
O     0.698135     3.590463    -3.580618
H     0.736574     2.828290    -4.168265
H    -5.384630    -5.179820     1.753757
O    -4.687621    -5.775496     1.400588
H    -3.847451    -5.360719     1.674269
H     7.904785    -1.690749    -4.026297
O     7.644436    -1.377848    -3.127372
H     7.158926    -0.533244    -3.284896
H     3.724828    -5.067314    -5.298525
O     4.486398    -4.695060    -4.815289
H     4.867975    -5.406503    -4.268010
H    -3.789815     0.028208     4.902677
O    -4.392003     0.492358     5.534017
H    -5.054219    -0.164974     5.822725
H     3.470659    -5.939078    -0.529210
O     4.344598    -5.692910    -0.844486
H     4.421658    -4.730729    -0.699726
H     5.025210    -0.332433    -4.162774
O     4.491144    -1.043610    -4.554819
H     4.161453    -1.626158    -3.837977
H    -1.115553     1.590012    -3.909146
O    -1.795877     2.190544    -4.274010
H    -1.471514     2.535273    -5.132710
H     4.896587    -6.319730    -2.320304
O     5.231822    -6.645008    -3.184982
H     6.048778    -7.126678    -2.995726
H     8.755572    -5.094315    -2.909834
O     8.061891    -5.511496    -2.354060
H     8.095665    -6.468815    -2.456368
H     2.353408     4.724149     0.443030
O     1.772734     4.706310     1.213141
H     1.412896     3.786748     1.288340
H    -4.422164    -2.623108     4.195863
O    -5.315056    -2.282542     3.990468
H    -5.175096    -1.501259     3.415690
H    -5.843360    -3.181253     1.276619
O    -6.309314    -3.738140     1.943111
H    -6.123006    -3.303224     2.794455
H     1.678436     3.470743     6.851453
O     1.057883     3.987237     6.315784
H     0.273125     4.141043     6.884657
H     4.996954    -2.169818     3.613508
O     5.016195    -1.452022     4.278120
H     4.205545    -0.894483     4.118913
H     2.378515    -5.574450     4.825193
O     2.758158    -6.458875     4.566245
H     2.012835    -7.039181     4.389388
H     2.286507    -4.508544    -6.803259
O     2.113184    -4.997383    -5.988797
H     1.847513    -4.306093    -5.333578
H     6.447534    -4.103931    -0.501789
O     7.198726    -4.508248    -0.036337
H     7.708000    -4.931039    -0.755650
H    -1.734864     4.496010     7.678636
O    -0.837368     4.592983     8.067514
H    -0.655299     5.551929     8.092424
H    -5.130177     5.800256    -5.556908
O    -4.518489     5.036299    -5.635436
H    -3.752043     5.323014    -6.160613
H     3.318955    -2.519813    -8.445386
O     3.227725    -3.053893    -7.645451
H     4.102518    -3.030305    -7.212688
H    -0.631335     8.836306    -2.294361
O    -0.508007     9.665331    -1.775639
H     0.251932     9.489230    -1.196441
H     2.058380    -0.909929     5.199351
O     1.483438    -1.435721     5.784817
H     1.574428    -1.090539     6.682370
H     5.233562    -2.020827    -5.695088
O     5.580341    -2.787312    -6.216657
H     5.304340    -3.577096    -5.700046
H     5.683699    -5.217008     4.684366
O     5.159041    -5.132056     5.509502
H     4.436815    -5.762839     5.421087
H    -3.985811     1.155643     6.975163
O    -3.796162     1.630630     7.820077
H    -4.672631     2.017349     8.077863
H    -1.825304     9.625279    -0.766357
O    -2.687167     9.500860    -0.293781
H    -3.296798     10.128537    -0.685392
H    -5.919878     4.703903    -2.982551
O    -6.826688     4.580523    -3.332071
H    -6.727477     3.881992    -4.010590
H     0.100514    -7.056521    -1.164273
O     0.561715    -7.494013    -0.415708
H    -0.119668    -7.687610     0.231219
H    -7.612948     3.808943    -2.020710
O    -7.880190     3.224195    -1.280873
H    -7.735637     2.314718    -1.617326
H     3.959502    -0.893106     6.980731
O     3.969539     0.071038     6.972687
H     4.783293     0.360282     6.543371
H     2.280292     5.801433    -1.187913
O     3.215506     5.507969    -1.071129
H     3.393395     4.967729    -1.864035
H     6.551824    -5.930998     0.673006
O     6.180573    -6.667314     1.204934
H     5.275671    -6.389169     1.429101
H    -3.878558     4.738520     7.750888
O    -3.310034     4.275207     7.093976
H    -3.505189     3.332007     7.203062
H     5.763344    -7.945665     0.135469
O     5.476990    -8.632266    -0.503368
H     4.649422    -8.305639    -0.900056
H    -0.570442     2.046961     7.673740
O    -1.201312     1.983303     6.936608
H    -2.071329     1.842714     7.330111
H    -6.375035    -0.105599     1.021983
O    -6.694080    -0.191073     0.108854
H    -7.613482    -0.459115     0.125896
H    -5.363257    -3.048757    -0.627166
O    -5.112700    -2.348030     0.000615
H    -5.679998    -1.573309    -0.188193
H     4.333792     5.579798     0.318173
O     4.665326     5.679836     1.224395
H     3.969861     6.190511     1.674758
H    -9.028417    -1.725829    -2.302629
O    -8.481635    -1.525417    -1.515973
H    -8.611860    -2.261354    -0.878041
H    -5.500816     3.523028    -5.605855
O    -6.013498     2.811665    -5.172619
H    -5.334725     2.294177    -4.687502
H     3.208784    -0.882153    -5.663842
O     2.354915    -1.001065    -6.133772
H     2.441569    -1.850297    -6.606289
H     8.143440    -1.349914    -6.021280
O     8.149378    -2.214290    -5.565470
H     7.293383    -2.612987    -5.818632
H     7.653596     0.990875    -6.302622
O     7.465081     0.143171    -6.717347
H     6.483755     0.094416    -6.756374
H    -7.857594    -3.674553     0.883549
O    -8.533850    -3.567310     0.197010
H    -8.434136    -4.326769    -0.404292
H    -2.390314     8.747308     1.269782
O    -2.242454     8.158703     2.023404
H    -1.472683     7.604280     1.802461
H    -4.436771     6.448114     3.465934
O    -4.604180     6.875068     2.609418
H    -3.839247     7.459529     2.471838
H     3.428263     3.451303    -3.583081
O     3.275908     4.420678    -3.490046
H     2.311068     4.485504    -3.600555
H    -6.094086    -1.584402    -3.486080
O    -6.181820    -2.166019    -2.704850
H    -6.965050    -1.857599    -2.195737
H     6.463754     1.047700     4.742958
O     6.068407     1.586522     5.445098
H     6.257681     2.505198     5.154645
H     1.392823     1.732262    -5.834328
O     1.199942     1.134985    -5.081029
H     1.563323     0.272525    -5.352240
H    -2.510626     2.970767     10.457960
O    -2.298794     2.062867     10.185363
H    -2.893973     1.864282     9.450626
H     7.627076    -0.501274     3.090328
O     6.877261     0.075324     3.256802
H     6.182821    -0.524080     3.633724
H    -5.656334    -8.038679    -0.741291
O    -4.923877    -8.108716    -0.092383
H    -4.928126    -7.291494     0.429790
H    -5.199189    -0.102200    -4.705921
O    -5.796561    -0.821065    -4.989767
H    -6.659067    -0.386057    -5.124230
H     1.915945    -0.189800    -7.529415
O     1.708712     0.276476    -8.374987
H     2.298203    -0.119977    -9.022290
H     4.911681    -1.387444    -9.306333
O     3.987968    -1.156835    -9.592266
H     3.971611    -1.275792    -10.541226
H     7.556894    -2.574113     4.205808
O     7.707430    -2.610466     3.246909
H     7.213503    -3.400271     2.973093
H     6.714971    -5.896882     2.686662
O     6.775060    -5.222072     3.388273
H     7.649482    -5.308134     3.808956
H    -1.810842     8.956809     3.475504
O    -1.566138     9.260992     4.374953
H    -2.416478     9.394289     4.827242
H    -7.402097     1.675806    -5.254389
O    -7.963165     0.906191    -5.030714
H    -8.874425     1.285932    -4.927301
H     6.962668    -1.081022    -8.400349
O     6.380787    -1.801330    -8.666283
H     6.149715    -2.251116    -7.835123
H    -1.629269     6.297491    -6.967937
O    -2.009233     5.453830    -6.706443
H    -1.765096     5.349004    -5.735409
H    -0.015183     3.316008     9.005939
O     0.179944     2.396025     9.261826
H    -0.620580     2.132699     9.765211
H     6.772227    -2.779515    -2.701781
O     6.239880    -3.523426    -2.362950
H     6.708462    -4.334607    -2.607954
H    -4.077035    -3.110216    -4.920837
O    -4.198605    -3.002395    -5.893750
H    -4.733444    -2.197456    -5.955024
H     1.964639     2.186436     8.454390
O     2.631059     2.298356     7.766733
H     3.052536     1.427644     7.652264
H    -6.899196    -5.184270    -1.438471
O    -7.814316    -5.452611    -1.687532
H    -7.944502    -5.049337    -2.570515
H    -3.829322     5.267526     5.667792
O    -3.793847     6.036417     5.077808
H    -2.859736     6.329418     5.174611
H    -7.868489     0.105857    -2.010407
O    -7.377449     0.829423    -2.422202
H    -7.600586     0.819923    -3.375966
H     5.846680     0.130586     0.413178
O     5.623783     0.852327     1.033370
H     6.130864     0.656391     1.848031
H    -6.225520     3.325460     7.358119
O    -6.101367     2.806810     8.187138
H    -6.702180     2.046223     8.096416
H     2.281400    -8.068308    -0.855220
O     2.960510    -8.056453    -1.549430
H     2.736716    -8.770228    -2.163239
H    -2.719293    -3.947304    -6.224360
O    -1.967179    -4.514214    -5.991238
H    -1.692785    -4.224396    -5.092481
H    -5.646665     3.775491     5.273241
O    -6.297153     4.172683     5.888677
H    -6.132365     5.116530     5.875795
H    -1.006348    -7.104220    -3.186869
O    -0.535197    -6.434949    -2.657096
H     0.373942    -6.366679    -3.034252
H     4.440233     2.017655     5.126481
O     3.499329     2.258079     5.003337
H     3.112025     2.274729     5.883877
H     4.104380     4.658435     6.298096
O     4.188492     5.388668     5.680555
H     3.623074     5.149131     4.907626
H     2.766442     3.621207     3.915018
O     2.590907     4.561641     3.748950
H     2.474351     4.660597     2.782091
H     9.407848     0.207057    -1.057960
O     8.600520     0.371134    -0.566979
H     8.421629    -0.447505    -0.074665
H    -2.119691     5.329392     10.627229
O    -2.843145     4.701618     10.856243
H    -3.064372     4.879216     11.770649
H     7.978413    -3.011692     0.335191
O     8.400226    -2.165857     0.591847
H     8.330754    -2.160736     1.553907
H     5.374177     3.665304     3.525946
O     6.028370     3.929627     4.194759
H     5.614709     4.648069     4.695124
H    -4.225412     5.034064     9.754354
O    -4.856180     5.186081     9.030546
H    -5.468638     4.437962     9.025592
H    -6.993312    -3.458788    -3.528588
O    -7.613068    -4.070057    -3.979292
H    -7.090029    -4.513170    -4.679126
H     0.009293     6.134885     10.754699
O    -0.854000     6.467798     10.504964
H    -0.734920     6.897985     9.638865
H     2.615090     1.503804    -4.113789
O     3.494599     1.852960    -3.873208
H     3.810064     1.338092    -3.100798
H    -6.986850    -0.202352     7.178191
O    -7.495733     0.576412     7.457317
H    -8.115783     0.761296     6.750838
H    -2.742468    -9.861204    -0.859150
O    -2.677850    -8.919733    -1.019403
H    -3.583882    -8.552002    -0.781144
H    -10.037879     3.102104    -4.947890
O    -10.154737     2.183401    -4.670803
H    -10.374638     2.265082    -3.721652
H    -2.076948    -3.014069     4.588452
O    -2.952562    -3.453316     4.655248
H    -2.944799    -4.070601     3.898579
H    -0.186556    -7.974418     2.464993
O     0.638646    -7.765629     2.915825
H     1.358487    -8.061971     2.331174
H     6.692056    -2.377466     6.395916
O     7.142064    -3.088093     5.934214
H     6.510958    -3.821826     5.893563
H    -5.287900    -1.989042     6.907588
O    -5.962354    -1.490402     6.421666
H    -5.943092    -1.866770     5.512254
H     0.878202     3.043467    -7.126390
O     1.795088     2.708806    -7.185199
H     1.776667     1.960174    -7.809140
H    -3.955557     8.769019     6.644119
O    -3.950941     8.767501     5.686760
H    -4.076013     7.840200     5.418035
H    -2.026854     10.325864    -2.759306
O    -2.927185     10.510222    -3.063445
H    -2.851655     11.142495    -3.777442
H     9.402052    -4.066184     4.056485
O     9.119796    -4.744109     4.678159
H     8.688177    -4.271357     5.400801
H    -0.712609    -5.986396    -5.862055
O    -0.011092    -6.554344    -5.527234
H     0.825902    -6.093603    -5.741216
H     1.844526     8.281390     0.654486
O     1.544637     8.604751    -0.223556
H     2.360696     8.640796    -0.751948
H     3.534200     2.934497    -6.667984
O     4.360549     2.643049    -6.256610
H     4.112036     2.370485    -5.348161
H     3.756454     7.128842    -1.234241
O     3.965152     8.064283    -1.446609
H     4.336406     8.007712    -2.339037
H     4.431220    -0.002028    -7.915550
O     4.805814     0.143138    -7.044951
H     4.624525     1.075307    -6.800977
H     6.044599     1.934074    -0.473901
O     6.613015     2.126187    -1.233635
H     7.436186     1.645460    -1.036634
H     6.688927    -8.431258    -1.604817
O     7.327555    -8.221520    -2.339390
H     7.694339    -9.056250    -2.625722
H    -5.280853    -5.770499    -5.444513
O    -5.895153    -5.097689    -5.763296
H    -5.342083    -4.329366    -5.994994
H     0.676850     7.179889     7.587213
O    -0.225812     7.208724     7.943843
H    -0.778548     7.224196     7.124399
H    -8.877115    -2.812322    -4.149660
O    -9.397943    -2.003339    -3.985338
H    -9.107896    -1.338593    -4.613606
H    -2.399952    -5.976040    -2.169707
O    -3.277325    -5.689741    -2.440868
H    -3.462012    -6.063590    -3.327182
H    -2.965486    -5.886875    -5.437792
O    -3.568893    -6.495545    -4.968980
H    -3.088801    -7.316267    -4.798917
H    -1.224093     3.795909    -7.019078
O    -0.765880     3.004091    -6.692099
H    -0.983967     2.230403    -7.266086
H    -0.107028     0.422869    -8.246681
O    -1.001434     0.625043    -7.919182
H    -1.073470     0.133056    -7.074678
H    -10.398203     4.076852    -2.785783
O    -10.468284     3.297242    -2.219343
H    -9.640363     3.269950    -1.707761
H     4.589953     4.082958     1.718446
O     4.380572     3.162287     1.997284
H     5.095905     2.585507     1.716505
H     6.511332     1.399256    -4.216252
O     6.205892     0.774935    -3.523526
H     6.233810     1.270378    -2.679559
H     9.643318    -2.229974    -0.916704
O     9.923099    -2.016098    -1.815651
H     9.124631    -1.675928    -2.261445
H     9.985221    -3.324856    -3.084883
O     9.719877    -3.976331    -3.761085
H     9.328891    -3.467962    -4.482289
H    -7.694124    -8.554994    -1.710070
O    -6.955237    -7.961748    -1.837517
H    -7.331513    -7.048137    -1.828065
H     4.190664     6.085442    -3.823799
O     4.852803     6.785650    -3.737628
H     5.687707     6.330372    -3.596746
H     0.114601    -8.161047    -5.234408
O     0.136284    -9.143980    -5.102814
H     0.290054    -9.507738    -5.974801
H    -2.325294    -8.660733    -2.743228
O    -2.088653    -8.397601    -3.652314
H    -1.441151    -9.016597    -4.008535
H     2.191000    -10.810145    -3.508011
O     2.146405    -9.855524    -3.484294
H     1.362871    -9.583599    -4.012616
H     6.864725     3.331244    -4.569756
O     6.924660     2.653378    -5.270871
H     6.132686     2.787385    -5.813630
H    -3.584070    -3.710402     7.690465
O    -3.696101    -2.922399     7.160237
H    -3.441955    -3.161310     6.242660
H    -0.609628    -3.355878    -6.743165
O     0.020645    -2.624677    -6.756820
H    -0.455190    -1.852596    -6.401985
H     0.623743     0.467801     8.736690
O     0.632573    -0.247416     8.096593
H    -0.289813    -0.534759     8.005522
H    -5.802592     7.387462    -4.282569
O    -6.308513     6.773913    -4.846511
H    -6.590269     6.036582    -4.261404
H    -4.245897     9.119234    -3.292345
O    -4.784767     8.325270    -3.186353
H    -4.377325     7.842712    -2.448848
H    -9.677919     5.820555    -4.694776
O    -10.212887     5.015685    -4.535638
H    -11.093235     5.220215    -4.852733
H     2.767119     6.519920     6.132597
O     1.806906     6.617703     6.228051
H     1.462322     5.704971     6.123650
H     4.824195     8.550134     0.083324
O     5.139517     8.550816     1.005015
H     5.543942     7.685537     1.137248
H     4.157790    -7.421499    -4.348729
O     3.401277    -7.705671    -4.893621
H     3.118812    -8.546127    -4.518009
H     0.384252     8.667594     4.219410
O     1.062606     8.022784     3.993727
H     1.285286     7.529066     4.808859
H     5.260852     4.194588    -3.158263
O     6.222164     4.162801    -3.102722
H     6.427671     3.581364    -2.353961
H    -2.594481    -1.533511     7.546459
O    -2.083751    -0.741221     7.768865
H    -2.710069    -0.113936     8.140482
H    -8.996471     7.957861    -4.190402
O    -8.930773     7.374366    -4.947801
H    -7.972381     7.209557    -5.077534
H     3.525844    -8.975752     1.082250
O     2.848786    -8.343466     1.328673
H     3.323065    -7.538545     1.610583
H     3.599052     8.176434     1.824984
O     2.807941     7.613432     1.934886
H     2.358881     7.849840     2.759252
N    -3.706725     1.480261    -7.097374
H    -4.595021     1.296305    -7.415037
H    -3.118886     1.073357    -7.745446
