603

H     0.233986     3.049520    -0.646775
O     0.755086     2.382932    -1.144070
H     1.693690     2.504307    -0.866332
H    -0.069171    -1.307739     3.159450
O     0.326772    -0.606211     2.619571
H    -0.148250     0.207877     2.856282
H    -2.368735     2.439491    -0.512645
O    -2.159873     1.963484     0.308602
H    -2.182077     1.016827     0.078877
H    -4.646126     0.571449     2.191039
O    -4.966814    -0.360741     2.199245
H    -4.463465    -0.837108     1.530842
H     0.079153    -0.299078     0.966008
O    -0.114358    -0.056351     0.039768
H     0.227933     0.839847    -0.074150
H    -0.158727    -3.580917     3.774973
O    -0.434650    -2.751542     4.198818
H     0.210514    -2.587602     4.903080
H    -4.859301     2.561032     1.348625
O    -4.222926     2.144826     1.962389
H    -3.379286     2.126529     1.451503
H    -3.208963     3.939014    -2.181607
O    -2.472292     3.339545    -1.952635
H    -2.115861     3.051448    -2.812932
H    -0.124231    -3.791871     0.499170
O     0.218474    -2.977807     0.921487
H    -0.567412    -2.489765     1.234622
H    -2.370897    -1.525873     2.472567
O    -2.181962    -1.988269     1.629593
H    -2.436736    -1.396433     0.902649
H     2.086771    -1.431834    -1.109049
O     2.315781    -1.690236    -0.192535
H     1.524059    -2.116516     0.187686
H    -1.369259     1.836126     1.933897
O    -1.463054     1.434205     2.807732
H    -1.447441     2.143047     3.476471
H     0.217939    -2.681070    -1.568163
O    -0.534490    -2.065373    -1.621390
H    -0.353304    -1.343568    -0.982910
H    -3.430571    -2.893686    -0.397552
O    -2.714174    -3.386371    -0.819177
H    -2.001213    -2.757405    -1.032894
H     2.784958     0.116260     2.955020
O     2.881715    -0.071861     3.915798
H     2.975833     0.818356     4.325612
H    -3.509101     6.393597    -0.465411
O    -3.316263     7.055350    -1.185429
H    -3.121494     7.913235    -0.739122
H     3.920066     0.574864     1.211750
O     2.968286     0.397639     1.324426
H     2.728787    -0.351154     0.741242
H    -5.756021     0.891580    -1.596331
O    -4.844467     1.214570    -1.466446
H    -4.953505     2.040987    -0.950890
H    -1.175178     5.407241     2.251302
O    -1.800370     4.661654     2.127995
H    -1.883892     4.239640     2.988351
H     3.522714     2.759707     0.461544
O     3.276879     2.724619    -0.478634
H     3.605453     1.881998    -0.833121
H     1.493199    -4.676860    -2.256971
O     1.559955    -3.902737    -1.679852
H     2.357333    -3.443389    -2.026921
H    -0.899358    -0.053062    -2.535772
O    -0.262309     0.599135    -2.854908
H    -0.000745     1.175491    -2.113845
H     1.697078    -4.677268    -0.185175
O     1.800026    -5.318660     0.554237
H     1.333585    -6.126259     0.253219
H    -1.217448    -3.230573    -2.884044
O    -1.044964    -3.911120    -3.547955
H    -0.923534    -4.761090    -3.083139
H    -2.757205     3.312219     4.730948
O    -1.775806     3.305520     4.698984
H    -1.486735     2.897966     5.533736
H     0.993677     5.024089     4.119151
O     0.048659     5.260833     4.168897
H    -0.428073     4.459038     4.422583
H    -1.731774    -4.626197    -0.383646
O    -0.969519    -5.171825    -0.100163
H    -1.321202    -5.860109     0.473910
H    -3.873976     5.877273    -2.558971
O    -4.221407     5.043911    -2.894379
H    -4.072055     5.015761    -3.863506
H    -2.432376    -3.673673     1.927603
O    -2.455391    -4.579784     2.298502
H    -1.516980    -4.822676     2.439769
H    -4.684783    -2.929030    -2.908018
O    -3.832528    -3.163427    -3.313758
H    -3.506141    -3.961002    -2.852027
H     0.354172     1.366592     4.637440
O     0.864312     2.126208     4.308758
H     0.913874     2.781309     5.019173
H    -4.656440    -5.126840    -1.591245
O    -5.357763    -4.773328    -1.016970
H    -5.147865    -5.133185    -0.134239
H     2.323842    -6.455863    -4.054018
O     1.986764    -6.129992    -3.199406
H     2.417296    -6.709297    -2.538369
H     0.477763    -3.345226    -4.007007
O     1.282678    -2.979237    -4.426863
H     0.966163    -2.602274    -5.274082
H     1.968228    -1.762356     2.991763
O     2.120004    -2.692661     2.769596
H     1.434353    -2.899858     2.100339
H    -2.998689    -1.764179    -3.209656
O    -2.572602    -0.879888    -3.139655
H    -3.225026    -0.229778    -3.456663
H    -3.152287     4.999982     1.113554
O    -3.927935     5.382295     0.656704
H    -4.345294     5.936044     1.364826
H     0.898178     2.251499     2.619343
O     1.002073     2.252294     1.648333
H     1.726056     1.625968     1.482676
H     0.246127     5.669354    -0.688005
O     0.744372     6.349265    -1.204437
H     0.930481     7.107153    -0.604486
H     0.383592     7.037068     2.641697
O     0.025340     6.664042     1.819334
H     0.684843     5.988391     1.560152
H    -2.467837     0.223956     3.352608
O    -2.693701    -0.591921     3.852670
H    -1.934626    -0.637671     4.475729
H    -0.885399     0.541803     6.041456
O    -0.611905     0.025400     5.264754
H     0.098032    -0.583013     5.549795
H     0.702114    -4.992855     1.970598
O     0.157986    -5.104137     2.773547
H     0.298119    -6.026769     3.041181
H    -2.136987    -8.066338     0.417172
O    -1.813782    -7.583873     1.205428
H    -2.599489    -7.271653     1.661836
H    -0.367959     6.964749    -2.254998
O    -1.126156     7.388072    -2.736940
H    -1.889110     7.184661    -2.136728
H    -1.073731     4.330518     0.606531
O    -0.700543     4.396516    -0.289405
H    -1.408455     4.155533    -0.921025
H    -4.386374     2.763900     3.528063
O    -4.385112     2.929035     4.493528
H    -4.473646     2.044339     4.897879
H     2.017940    -3.598679     4.244353
O     1.950621    -4.075219     5.094881
H     2.458625    -3.544034     5.729404
H     4.689886    -3.205193     0.845959
O     4.531656    -3.123440    -0.120450
H     3.674852    -2.642244    -0.202822
H    -2.705815    -0.714137    -1.345588
O    -3.033255    -0.446707    -0.470413
H    -3.831512     0.083132    -0.675904
H    -1.594098    -0.714530    -4.623313
O    -1.084665    -0.495822    -5.424995
H    -0.372543     0.095390    -5.134790
H     1.811167    -1.690125    -3.367680
O     1.905679    -0.946565    -2.740937
H     1.130697    -0.365958    -2.870055
H     3.662121    -3.137035     2.555921
O     4.620278    -3.369827     2.483163
H     4.670528    -4.330859     2.605152
H     3.411143    -6.138103     3.112585
O     3.769346    -5.934044     2.214071
H     3.034299    -5.582447     1.671697
H    -3.311173     1.663638    -4.159447
O    -4.157517     1.194503    -3.973051
H    -4.377493     1.336213    -3.016142
H    -5.046508     4.186223     0.092177
O    -5.487885     3.322009    -0.014736
H    -6.417705     3.446186    -0.297114
H     6.748737    -1.190408    -1.341648
O     5.975677    -1.039921    -0.791190
H     5.552785    -1.906908    -0.598426
H     4.601714    -3.161680    -2.463910
O     3.735442    -2.984172    -2.880647
H     3.737329    -3.599294    -3.639804
H     4.431712    -2.328390     5.632849
O     4.085359    -2.796520     6.422935
H     4.416485    -3.702578     6.337128
H    -0.718093     6.330886     5.120497
O    -1.312708     6.906879     5.660496
H    -1.323861     7.785484     5.221881
H     4.717669    -0.134467    -1.443913
O     3.953212     0.412803    -1.705412
H     3.258715    -0.183250    -2.039509
H    -0.596330     4.570725    -4.022116
O    -1.377433     5.111061    -4.257845
H    -1.266860     5.947723    -3.769493
H     0.695228     3.229431    -2.624472
O     0.705551     3.613639    -3.530300
H     0.749170     2.853964    -4.121176
H    -5.392071    -5.164244     1.772764
O    -4.697383    -5.760241     1.415662
H    -3.855556    -5.349394     1.689929
H     7.898259    -1.690084    -4.013961
O     7.640233    -1.380269    -3.113156
H     7.157361    -0.533586    -3.266119
H     3.705357    -5.046437    -5.295151
O     4.468658    -4.678903    -4.810893
H     4.849023    -5.394518    -4.268203
H    -3.776023     0.024473     4.942987
O    -4.375534     0.488018     5.577032
H    -5.039276    -0.168491     5.864396
H     3.456161    -5.940411    -0.529158
O     4.330394    -5.695551    -0.844650
H     4.410881    -4.734383    -0.695799
H     5.023660    -0.322254    -4.138368
O     4.485412    -1.028694    -4.533037
H     4.155784    -1.614791    -3.818960
H    -1.141685     1.613684    -3.915456
O    -1.786578     2.242276    -4.297927
H    -1.426596     2.573342    -5.143475
H     4.877983    -6.317338    -2.324709
O     5.211035    -6.639035    -3.191479
H     6.026336    -7.124950    -3.005798
H     8.739729    -5.101692    -2.914982
O     8.045473    -5.519133    -2.360132
H     8.076101    -6.476079    -2.466995
H     2.375602     4.719574     0.494201
O     1.794473     4.702920     1.263765
H     1.433001     3.783717     1.338481
H    -4.417456    -2.621627     4.225166
O    -5.309561    -2.277155     4.022953
H    -5.168258    -1.493636     3.451758
H    -5.845148    -3.161787     1.305975
O    -6.311395    -3.720293     1.970658
H    -6.122783    -3.289873     2.823743
H     1.705927     3.440911     6.898088
O     1.086487     3.962186     6.365725
H     0.303063     4.115785     6.936747
H     5.001646    -2.195965     3.628704
O     5.024166    -1.481099     4.296438
H     4.215027    -0.920540     4.141322
H     2.374183    -5.597738     4.828749
O     2.750852    -6.481846     4.564792
H     2.003603    -7.059216     4.386406
H     2.265790    -4.476163    -6.795003
O     2.093258    -4.967891    -5.982112
H     1.830470    -4.279002    -5.323558
H     6.439212    -4.115129    -0.498770
O     7.189949    -4.523730    -0.036374
H     7.696512    -4.945175    -0.758439
H    -1.702343     4.472998     7.735943
O    -0.803464     4.565552     8.122905
H    -0.619007     5.523875     8.152804
H    -5.066946     5.759380    -5.556721
O    -4.458837     4.995005    -5.581858
H    -3.703351     5.210030    -6.149518
H     3.301701    -2.483666    -8.429512
O     3.210086    -3.019560    -7.630801
H     4.086181    -3.001914    -7.200572
H    -0.418129     8.978780    -1.922262
O    -0.242850     9.805802    -1.435430
H     0.494020     9.555932    -0.843606
H     2.069781    -0.933841     5.225755
O     1.493617    -1.460275     5.809298
H     1.587123    -1.119956     6.708468
H     5.223233    -2.003623    -5.679737
O     5.567021    -2.768668    -6.205043
H     5.288824    -3.560107    -5.692045
H     5.680534    -5.250060     4.683756
O     5.157348    -5.166842     5.510006
H     4.433277    -5.795321     5.420255
H    -3.964776     1.143334     7.020900
O    -3.771900     1.614039     7.867384
H    -4.646757     2.002376     8.128646
H    -1.734920     9.706155    -0.590231
O    -2.645429     9.509724    -0.262794
H    -3.224506     10.115759    -0.751197
H    -5.912194     4.746283    -2.909927
O    -6.818547     4.622636    -3.258029
H    -6.725685     3.923264    -3.937239
H     0.082058    -7.044240    -1.164325
O     0.543185    -7.485936    -0.418107
H    -0.137922    -7.681220     0.228606
H    -7.601655     3.849650    -1.949565
O    -7.865955     3.258936    -1.213205
H    -7.726432     2.352096    -1.558402
H     3.973203    -0.931647     7.004081
O     3.986191     0.032500     6.999590
H     4.800770     0.320709     6.571202
H     2.294588     5.809650    -1.140632
O     3.226138     5.512934    -1.020370
H     3.408042     4.973533    -1.813527
H     6.539633    -5.948031     0.667567
O     6.166795    -6.685390     1.196842
H     5.263191    -6.405309     1.423753
H    -3.844536     4.722390     7.812804
O    -3.278441     4.260195     7.152859
H    -3.476796     3.317201     7.257969
H     5.743299    -7.957683     0.121994
O     5.453503    -8.640331    -0.519433
H     4.626404    -8.309189    -0.913361
H    -0.545802     2.020438     7.717645
O    -1.177859     1.962484     6.981010
H    -2.047749     1.822852     7.375258
H    -6.368923    -0.083078     1.066393
O    -6.687008    -0.161871     0.152377
H    -7.607310    -0.427544     0.166915
H    -5.367795    -3.022107    -0.597551
O    -5.113118    -2.324217     0.032031
H    -5.679864    -1.547994    -0.152058
H     4.358083     5.570905     0.370217
O     4.696591     5.662662     1.274016
H     4.006398     6.170170     1.736386
H    -9.031187    -1.679047    -2.261691
O    -8.483433    -1.484163    -1.473919
H    -8.615270    -2.223247    -0.840031
H    -5.481769     3.538898    -5.505275
O    -6.002246     2.826248    -5.097984
H    -5.339506     2.236840    -4.684050
H     3.202313    -0.858855    -5.639242
O     2.346656    -0.972226    -6.107226
H     2.429071    -1.819317    -6.584705
H     8.135015    -1.340690    -6.007630
O     8.138555    -2.206865    -5.555325
H     7.281094    -2.601894    -5.809377
H     7.651987     1.003580    -6.277509
O     7.459916     0.158128    -6.695070
H     6.478450     0.112668    -6.733276
H    -7.861719    -3.647844     0.913867
O    -8.538525    -3.534687     0.228922
H    -8.442633    -4.291522    -0.376357
H    -2.366424     8.760764     1.321775
O    -2.211711     8.173985     2.075355
H    -1.443300     7.618266     1.854261
H    -4.401178     6.455474     3.536708
O    -4.570185     6.883106     2.680962
H    -3.808623     7.471249     2.542119
H     3.439016     3.464607    -3.538646
O     3.288133     4.434054    -3.439853
H     2.323767     4.501274    -3.550939
H    -6.100717    -1.546035    -3.445020
O    -6.187111    -2.129021    -2.664241
H    -6.970654    -1.821156    -2.155180
H     6.480566     1.011124     4.771006
O     6.087651     1.548182     5.475871
H     6.280475     2.467434     5.190021
H     1.395571     1.761016    -5.796514
O     1.197447     1.162845    -5.045014
H     1.556921     0.299203    -5.318575
H    -2.478086     2.937326     10.509641
O    -2.269293     2.030224     10.232057
H    -2.866669     1.836907     9.497704
H     7.635931    -0.533419     3.108880
O     6.888219     0.044896     3.279012
H     6.192672    -0.554137     3.654604
H    -5.677065    -8.010528    -0.735357
O    -4.943427    -8.085553    -0.088229
H    -4.944636    -7.270920     0.437896
H    -5.153836    -0.056904    -4.709341
O    -5.773369    -0.764820    -4.953716
H    -6.609505    -0.318695    -5.150602
H     1.917897    -0.153453    -7.497697
O     1.719815     0.324002    -8.339314
H     2.295231    -0.080741    -8.993843
H     4.897469    -1.352989    -9.288049
O     3.973821    -1.118282    -9.570419
H     3.954441    -1.231588    -10.520039
H     7.561505    -2.611363     4.214562
O     7.709513    -2.642949     3.255086
H     7.213480    -3.430494     2.978503
H     6.706140    -5.923771     2.681167
O     6.769655    -5.252259     3.385667
H     7.644384    -5.343422     3.804670
H    -1.774379     8.958426     3.544471
O    -1.524632     9.250659     4.445999
H    -2.372086     9.388802     4.902279
H    -7.358427     1.641292    -5.240350
O    -7.936723     0.898730    -4.999105
H    -8.836900     1.302167    -4.922422
H     6.951375    -1.056690    -8.383363
O     6.366432    -1.773671    -8.651435
H     6.135466    -2.226859    -7.822149
H    -1.671638     6.165001    -7.191030
O    -2.061041     5.407337    -6.754216
H    -1.692489     5.375734    -5.822588
H     0.015739     3.281613     9.054914
O     0.208452     2.359769     9.305816
H    -0.591958     2.096573     9.809546
H     6.764454    -2.781472    -2.692763
O     6.230024    -3.524975    -2.356423
H     6.695254    -4.336697    -2.606177
H    -4.066613    -3.014632    -4.950203
O    -4.218291    -2.896438    -5.914742
H    -4.762587    -2.101132    -5.967921
H     1.990808     2.148315     8.494704
O     2.656330     2.260819     7.806224
H     3.074722     1.389174     7.687662
H    -6.912103    -5.148684    -1.417102
O    -7.828325    -5.413276    -1.665510
H    -7.958842    -5.005735    -2.546635
H    -3.797461     5.260650     5.732264
O    -3.759731     6.031641     5.145190
H    -2.824975     6.321863     5.243015
H    -7.865147     0.147673    -1.963483
O    -7.370526     0.870319    -2.372809
H    -7.598291     0.865870    -3.326205
H     5.853345     0.116789     0.437534
O     5.633823     0.836236     1.061703
H     6.141778     0.634368     1.874514
H    -6.196356     3.318547     7.417998
O    -6.072238     2.795502     8.244227
H    -6.675911     2.037455     8.151152
H     2.259394    -8.064264    -0.864216
O     2.937652    -8.051207    -1.559233
H     2.710699    -8.761283    -2.176234
H    -2.735776    -3.902850    -6.205900
O    -1.984662    -4.473203    -5.975945
H    -1.708869    -4.187638    -5.076710
H    -5.619445     3.776941     5.333881
O    -6.267216     4.172904     5.952746
H    -6.101253     5.116569     5.942523
H    -1.028700    -7.078611    -3.184554
O    -0.554135    -6.413400    -2.652460
H     0.354222    -6.346193    -3.031628
H     4.460529     1.985998     5.162593
O     3.520369     2.230738     5.041840
H     3.134328     2.243911     5.923048
H     4.135036     4.622547     6.347737
O     4.220756     5.355028     5.733080
H     3.652964     5.121078     4.960340
H     2.789919     3.600508     3.961899
O     2.617370     4.542218     3.799747
H     2.500005     4.646095     2.833867
H     9.412307     0.189211    -1.039324
O     8.605888     0.353325    -0.546815
H     8.425782    -0.466932    -0.057586
H    -2.079677     5.293906     10.689147
O    -2.804585     4.667193     10.916295
H    -3.024165     4.841361     11.831763
H     7.974980    -3.031769     0.340887
O     8.399302    -2.188155     0.600879
H     8.332182    -2.187914     1.563123
H     5.396724     3.638113     3.568971
O     6.053543     3.897982     4.236697
H     5.642850     4.614450     4.742368
H    -4.187253     5.009827     9.818206
O    -4.818194     5.167183     9.095696
H    -5.433658     4.421556     9.088588
H    -7.004260    -3.414298    -3.498141
O    -7.626573    -4.021416    -3.950434
H    -7.106427    -4.462133    -4.654108
H     0.052153     6.092641     10.816622
O    -0.810655     6.428789     10.569590
H    -0.691821     6.863144     9.705612
H     2.618773     1.520860    -4.078197
O     3.497910     1.869296    -3.835504
H     3.814993     1.347793    -3.067855
H    -6.969483    -0.206175     7.223067
O    -7.474884     0.573284     7.506437
H    -8.096182     0.762981     6.802334
H    -2.769230    -9.841284    -0.867331
O    -2.701618    -8.899167    -1.022514
H    -3.606267    -8.529833    -0.781341
H    -10.030986     3.160270    -4.883740
O    -10.152359     2.241944    -4.607528
H    -10.369113     2.322911    -3.657648
H    -2.072874    -3.021578     4.611550
O    -2.949766    -3.458210     4.677803
H    -2.945321    -4.072345     3.918540
H    -0.201676    -7.978306     2.461642
O     0.624958    -7.773582     2.911714
H     1.342812    -8.069903     2.324597
H     6.700531    -2.422109     6.407371
O     7.147459    -3.131581     5.940944
H     6.514261    -3.863399     5.898119
H    -5.276553    -1.997048     6.941302
O    -5.949823    -1.493605     6.458710
H    -5.933952    -1.866304     5.547766
H     0.877464     3.080581    -7.082897
O     1.793451     2.745555    -7.138397
H     1.777636     2.001290    -7.768155
H    -3.911447     8.758469     6.724802
O    -3.904098     8.761234     5.767504
H    -4.035983     7.836388     5.494075
H    -3.185521     10.412913    -3.110886
O    -3.955863     10.633798    -2.529485
H    -4.192949     11.539673    -2.744316
H     9.401595    -4.108481     4.055154
O     9.117733    -4.788343     4.673954
H     8.689246    -4.317600     5.399749
H    -0.736091    -5.949048    -5.855682
O    -0.035783    -6.520397    -5.523765
H     0.802180    -6.061753    -5.737904
H     1.948859     8.228686     0.767294
O     1.645741     8.562923    -0.106742
H     2.454535     8.608422    -0.645853
H     3.537875     2.962649    -6.626844
O     4.363597     2.667628    -6.217210
H     4.115640     2.389743    -5.310366
H     3.799145     7.120736    -1.178032
O     4.015539     8.056210    -1.382537
H     4.374231     8.006570    -2.280608
H     4.423584     0.027519    -7.889185
O     4.799867     0.168356    -7.018509
H     4.622031     1.099924    -6.771135
H     6.056289     1.923487    -0.440670
O     6.623315     2.118419    -1.200770
H     7.445457     1.633932    -1.008317
H     6.664380    -8.438317    -1.622123
O     7.302257    -8.226964    -2.356839
H     7.665019    -9.061542    -2.648736
H    -5.302203    -5.722048    -5.428568
O    -5.915852    -5.045760    -5.741013
H    -5.360963    -4.278899    -5.973238
H     0.717533     7.150324     7.652684
O    -0.184478     7.179992     8.010680
H    -0.738525     7.201554     7.192367
H    -8.887486    -2.758160    -4.114020
O    -9.404576    -1.948236    -3.943137
H    -9.114945    -1.281448    -4.569609
H    -2.417251    -5.950959    -2.160779
O    -3.293518    -5.659076    -2.429517
H    -3.481144    -6.028785    -3.317253
H    -2.988043    -5.843821    -5.427430
O    -3.591318    -6.453080    -4.958945
H    -3.113463    -7.276398    -4.795607
H    -1.346916     3.784259    -6.951491
O    -0.810944     3.025524    -6.682097
H    -1.049121     2.243383    -7.236382
H    -0.172985     0.475860    -8.198454
O    -1.067791     0.714973    -7.914297
H    -1.247321     0.186839    -7.120307
H    -10.384546     4.129404    -2.714365
O    -10.455947     3.347295    -2.151437
H    -9.628082     3.315609    -1.640352
H     4.614162     4.065521     1.763030
O     4.398623     3.144783     2.036516
H     5.112045     2.565758     1.755360
H     6.514564     1.405613    -4.186924
O     6.207228     0.779715    -3.496499
H     6.239600     1.270571    -2.650082
H     9.640349    -2.249629    -0.909883
O     9.919334    -2.031693    -1.808089
H     9.121126    -1.687415    -2.251073
H     9.975221    -3.335112    -3.083899
O     9.706131    -3.982584    -3.762390
H     9.315965    -3.469697    -4.480822
H    -7.717814    -8.515925    -1.703862
O    -6.977164    -7.924236    -1.828239
H    -7.350834    -7.009596    -1.814534
H     4.209370     6.094488    -3.772100
O     4.871857     6.793854    -3.682842
H     5.706789     6.337516    -3.545456
H     0.085222    -8.128993    -5.239972
O     0.104511    -9.112616    -5.112975
H     0.254552    -9.472743    -5.987122
H    -2.351226    -8.633519    -2.746218
O    -2.114695    -8.366155    -3.654043
H    -1.470554    -8.985914    -4.015007
H     2.156615    -10.792813    -3.530184
O     2.114743    -9.838202    -3.501251
H     1.331336    -9.561339    -4.027290
H     6.873793     3.339003    -4.532332
O     6.929603     2.663655    -5.235957
H     6.137691     2.802807    -5.777430
H    -3.577483    -3.727492     7.713060
O    -3.687149    -2.936577     7.186681
H    -3.435638    -3.172296     6.267591
H    -0.626170    -3.309870    -6.726175
O     0.007175    -2.581040    -6.729144
H    -0.471826    -1.805253    -6.384509
H     0.645254     0.431989     8.771627
O     0.650637    -0.279680     8.127558
H    -0.272789    -0.563919     8.037076
H    -5.860787     7.409057    -4.149216
O    -6.287425     6.798271    -4.782075
H    -6.596242     6.052011    -4.221142
H    -5.122184     9.100583    -2.729992
O    -5.511721     8.218017    -2.655525
H    -4.912109     7.738375    -2.060814
H    -9.662346     5.880831    -4.615813
O    -10.198979     5.076463    -4.459939
H    -11.078652     5.283917    -4.777065
H     2.803287     6.489926     6.191922
O     1.843432     6.590524     6.287655
H     1.495888     5.679070     6.181492
H     4.864766     8.539673     0.153345
O     5.174558     8.533362     1.076575
H     5.580966     7.668135     1.202874
H     4.132361    -7.406891    -4.357205
O     3.373881    -7.685486    -4.902168
H     3.089255    -8.527093    -4.530764
H     0.423452     8.654581     4.290455
O     1.099633     8.008192     4.062447
H     1.320850     7.510110     4.875515
H     5.274632     4.198189    -3.113560
O     6.235785     4.166208    -3.058319
H     6.441685     3.579006    -2.314083
H    -2.580946    -1.553062     7.577440
O    -2.067473    -0.763096     7.801882
H    -2.691041    -0.135922     8.178287
H    -8.968334     8.011805    -4.104268
O    -8.908803     7.433671    -4.866412
H    -7.952289     7.261987    -4.999945
H     3.504635    -8.984752     1.067187
O     2.830363    -8.351259     1.318160
H     3.308023    -7.549487     1.603043
H     3.652578     8.153008     1.924797
O     2.867294     7.582241     2.038828
H     2.400984     7.829194     2.851026
N    -1.747510     9.961788    -3.997561
H    -1.549471     9.035261    -3.773261
H    -1.046531     10.441272    -3.538977
