33

H    -0.228128    -3.404949     3.770011
O    -0.553416    -2.615348     4.230898
H     0.127794    -2.398053     4.889418
H    -2.517024    -3.582299     1.896604
O    -2.565444    -4.467021     2.323653
H    -1.638478    -4.788870     2.353584
H     1.914545    -1.704759     2.939410
O     2.036329    -2.657257     2.811845
H     1.397576    -2.879260     2.103049
H     0.653528    -5.080199     1.928828
O     0.096726    -5.071028     2.735648
H     0.201856    -5.982698     3.067547
H     1.959761    -3.585550     4.359300
O     1.935705    -4.043770     5.225851
H     2.455254    -3.458392     5.814349
H     2.356252    -5.621313     4.922651
O     2.721875    -6.505969     4.669147
H     1.969657    -7.090459     4.536169
H     1.991761    -0.735583     5.298644
O     1.446602    -1.290159     5.890133
H     1.456540    -0.874274     6.771256
H    -2.258822    -2.899999     4.627944
O    -3.055015    -3.460216     4.740386
H    -3.029250    -3.999827     3.915066
H    -0.284740    -8.030685     2.463066
O     0.550029    -7.850501     2.914312
H     1.251403    -8.113659     2.286887
H    -3.798346    -3.498719     7.875826
O    -3.816641    -2.793773     7.228842
H    -3.601328    -3.193436     6.358041
N    -0.650024    -5.429296     5.758581
H    -1.368029    -4.808805     5.584127
H     0.144454    -4.875013     5.752647
