60
Coordinates from ORCA-job grain_mol_opt.QMRegion
  H   0.28487913001389      2.95506598206102     -0.58416153273368
  O   0.82307136539542      2.37240030525189     -1.16152632148858
  H   1.76323598671995      2.47608139084022     -0.87133797708491
  H   0.14644496933196      5.68200927010393     -0.64626518657143
  O   0.67376567629052      6.34861011944935     -1.15394889107450
  H   0.83880102978690      7.13235143594978     -0.57654720808087
  H   -0.48366109184955      6.88308970157373     -2.15330098095122
  O   -1.17910469581789      7.31936309436542     -2.71548222186071
  H   -1.99276980082498      7.20295928507627     -2.16787086974531
  H   -1.14865827124798      4.27494417004953      0.61321866464788
  O   -0.74364188607223      4.32174355386632     -0.27451936750234
  H   -1.45220302930896      4.08190082911621     -0.91245093431186
  H   -1.02230977779416      4.55217093842099     -3.95891856825574
  O   -1.69738960880436      5.19424797539017     -4.24481503445434
  H   -1.47161562243754      6.01754407305209     -3.75986543323631
  H   0.74665343880959      3.34033501595217     -2.61368233000336
  O   0.61172959978729      3.73449120134174     -3.51031560071959
  H   0.59877524498440      2.95676910930759     -4.07872351434674
  H   -1.15985753595799      1.49047819228490     -3.90994311686292
  O   -1.77335067164286      2.16132606706434     -4.27975028825799
  H   -1.49778876635616      2.39252449220423     -5.18721959099100
  H   -0.64042815928462      8.86226833026016     -2.14129201235692
  O   -0.48591265113242      9.73799670249639     -1.71680329661605
  H   0.18251511106640      9.57247388703935     -1.03121881665390
  H   2.26745234517746      5.83594802804230     -1.07708878880413
  O   3.22468460071927      5.62420945370911     -1.00779974541855
  H   3.41089473432544      4.99831017084442     -1.74869419560427
  H   3.38964489444283      3.47279605088909     -3.45158367054994
  O   3.67026281743009      4.39358222453379     -3.24671900951445
  H   3.25277324190200      5.00206771876007     -3.88750918743800
  H   1.34249295654831      1.62358173951333     -5.88189727297134
  O   1.17039757496137      1.03420307173874     -5.11179882296517
  H   1.56235330500274      0.18235358328803     -5.40545560841451
  H   -1.82833404597334      6.22731472175876     -7.17029777775122
  O   -2.09054748302903      5.39463875521347     -6.77429822037634
  H   -1.81474365697859      5.41612090582978     -5.80052180651572
  H   2.59126514505514      1.43746238973447     -4.10472471568226
  O   3.43520697111317      1.85593658931069     -3.84095791244051
  H   3.78933012048324      1.33751310401578     -3.08657887935823
  H   0.79764181294492      3.00711793808386     -7.23381286552903
  O   1.72936911311883      2.69878446715373     -7.25039156156052
  H   1.72822318867490      1.93952393609662     -7.86642361776164
  H   1.91082917622677      8.31672216066642      0.75371936978978
  O   1.56605613946143      8.66330544404395     -0.10352553022879
  H   2.37068853560659      8.72514726805214     -0.65443353279079
  H   3.57339827752493      2.97028714254193     -6.69841283313441
  O   4.37758108804645      2.66223923988999     -6.25944139508357
  H   4.09019828513315      2.36134998997989     -5.37094784205922
  H   3.81775823999816      7.19490911153242     -1.29592137746250
  O   4.00896052018962      8.15700592817422     -1.43192146533643
  H   4.65777243448282      8.14874701648023     -2.15004237232687
  H   -1.43489823158383      3.74465059857296     -7.07123740070854
  O   -0.93706742122551      2.95847042300138     -6.76347848639196
  H   -1.15183026211067      2.18710648011355     -7.34040091724036
  H   6.35258949743150      7.31088669014046     -4.10105392005620
  O   5.71038625207006      6.95084742742837     -3.48471406366994
  H   6.02629190846071      6.04674435725824     -3.30250785239914
  O   1.85172697443013      6.03348723247922     -4.53258370503564
  H   1.77035823323149      6.75448477177765     -3.89993292116103
  H   1.28808483803927      5.32588654386531     -4.16674512727887
