603

H     0.189846     3.026179    -0.668815
O     0.714078     2.363466    -1.167411
H     1.652110     2.489864    -0.890466
H    -0.083015    -1.311774     3.151707
O     0.317175    -0.608397     2.617380
H    -0.175095     0.199671     2.841806
H    -2.404474     2.396587    -0.540135
O    -2.210341     1.935368     0.293050
H    -2.224574     0.983247     0.083332
H    -4.615499     0.448279     2.066590
O    -4.967159    -0.465197     2.146023
H    -4.567507    -0.983805     1.434836
H     0.054858    -0.316964     0.961765
O    -0.127679    -0.080521     0.031372
H     0.197814     0.821817    -0.079160
H    -0.152048    -3.584296     3.786674
O    -0.428623    -2.754011     4.207254
H     0.216929    -2.583939     4.908985
H    -5.019691     2.505721     1.333256
O    -4.288054     2.125634     1.846572
H    -3.486301     2.172438     1.266378
H    -3.274135     3.874170    -2.193244
O    -2.519125     3.295463    -1.975432
H    -2.165846     3.010069    -2.837781
H    -0.124182    -3.809239     0.512090
O     0.216721    -2.991897     0.928239
H    -0.571769    -2.505785     1.243084
H    -2.401514    -1.562077     2.481776
O    -2.172284    -2.017209     1.645357
H    -2.475045    -1.440097     0.925176
H     2.067320    -1.445200    -1.112164
O     2.302738    -1.700066    -0.196627
H     1.513238    -2.125938     0.189840
H    -1.442164     1.808560     1.916691
O    -1.491089     1.412652     2.796533
H    -1.480563     2.127177     3.456669
H     0.205506    -2.707968    -1.559740
O    -0.549508    -2.096303    -1.618997
H    -0.375238    -1.372811    -0.979984
H    -3.431118    -2.942934    -0.369206
O    -2.721409    -3.428472    -0.809564
H    -2.011199    -2.794206    -1.017013
H     2.764726     0.125220     2.941686
O     2.870240    -0.055180     3.903033
H     2.956578     0.838532     4.306076
H    -3.512705     6.382877    -0.526748
O    -3.307073     7.041173    -1.240720
H    -3.159100     7.888700    -0.776050
H     3.895164     0.582347     1.192049
O     2.944993     0.400580     1.308466
H     2.706854    -0.352640     0.730419
H    -5.744166     0.807944    -1.593431
O    -4.827193     1.116992    -1.516343
H    -4.864183     2.046674    -1.205614
H    -1.201322     5.384004     2.238080
O    -1.824477     4.635477     2.117107
H    -1.918889     4.215799     2.977776
H     3.480782     2.761170     0.433029
O     3.235726     2.720519    -0.506897
H     3.567304     1.877366    -0.857121
H     1.492403    -4.700495    -2.244322
O     1.555302    -3.923090    -1.671444
H     2.348661    -3.459782    -2.021749
H    -0.926157    -0.094092    -2.535728
O    -0.298361     0.562874    -2.863058
H    -0.036286     1.143436    -2.125198
H     1.700449    -4.688471    -0.172455
O     1.812050    -5.327495     0.567678
H     1.347233    -6.138023     0.272742
H    -1.227419    -3.272892    -2.870260
O    -1.055260    -3.955800    -3.532236
H    -0.926511    -4.802434    -3.063280
H    -2.805094     3.281133     4.697163
O    -1.823972     3.304817     4.679809
H    -1.530469     2.894776     5.511470
H     0.950539     5.028115     4.086314
O     0.004156     5.259664     4.142007
H    -0.465710     4.454819     4.398181
H    -1.729371    -4.656931    -0.363514
O    -0.963884    -5.200492    -0.083136
H    -1.309922    -5.882394     0.501640
H    -3.929235     5.820201    -2.589206
O    -4.291975     4.992721    -2.921981
H    -4.127451     4.951524    -3.887218
H    -2.431014    -3.689429     1.950700
O    -2.448893    -4.601271     2.313506
H    -1.510024    -4.836408     2.459468
H    -4.695604    -2.995239    -2.884689
O    -3.846599    -3.226617    -3.297114
H    -3.509785    -4.016562    -2.829107
H     0.336210     1.372141     4.617070
O     0.839890     2.136521     4.286961
H     0.884760     2.791523     4.997088
H    -4.654934    -5.181921    -1.559608
O    -5.359398    -4.829320    -0.988595
H    -5.144306    -5.179103    -0.102514
H     2.329580    -6.483540    -4.034495
O     1.992191    -6.155496    -3.180970
H     2.427839    -6.728086    -2.517457
H     0.463822    -3.383455    -3.997319
O     1.265376    -3.015958    -4.422375
H     0.944122    -2.644159    -5.269912
H     1.957468    -1.757467     2.989247
O     2.119282    -2.686952     2.770170
H     1.431957    -2.902669     2.104801
H    -3.018742    -1.822248    -3.202531
O    -2.597385    -0.934848    -3.145979
H    -3.254826    -0.291696    -3.463236
H    -3.110617     5.076216     1.189008
O    -3.909119     5.406956     0.718958
H    -4.352969     5.973261     1.402427
H     0.860934     2.247197     2.595824
O     0.971015     2.248783     1.625493
H     1.695222     1.621801     1.463997
H     0.173084     5.650502    -0.749915
O     0.692824     6.314860    -1.258054
H     0.834273     7.113552    -0.700926
H     0.329861     7.030472     2.602077
O    -0.034862     6.650457     1.785646
H     0.629224     5.980724     1.520466
H    -2.506068     0.173666     3.354341
O    -2.688145    -0.628891     3.888222
H    -1.914436    -0.640195     4.491876
H    -0.886833     0.547859     6.039990
O    -0.601357     0.038075     5.263968
H     0.103675    -0.574700     5.549993
H     0.713922    -4.999277     1.987184
O     0.173054    -5.111344     2.791820
H     0.319383    -6.031473     3.063635
H    -2.111494    -8.097704     0.456729
O    -1.787862    -7.612444     1.242702
H    -2.572974    -7.297926     1.698643
H    -0.396568     6.857780    -2.316236
O    -1.143209     7.277690    -2.815992
H    -1.933529     7.148768    -2.252977
H    -1.121253     4.294070     0.584591
O    -0.756285     4.367549    -0.313302
H    -1.462635     4.119433    -0.943549
H    -4.373536     2.689371     3.502029
O    -4.414640     2.845080     4.470966
H    -4.444752     1.946236     4.867727
H     2.025735    -3.586114     4.249610
O     1.968377    -4.060817     5.102080
H     2.469242    -3.519825     5.733624
H     4.686698    -3.193600     0.843591
O     4.526541    -3.117596    -0.123047
H     3.665966    -2.642392    -0.205569
H    -2.716876    -0.759749    -1.351993
O    -3.036013    -0.494143    -0.474210
H    -3.850585     0.009838    -0.665033
H    -1.624070    -0.769249    -4.623931
O    -1.118280    -0.550464    -5.428327
H    -0.409287     0.046181    -5.141405
H     1.788398    -1.716786    -3.369925
O     1.881277    -0.968264    -2.749284
H     1.100919    -0.394566    -2.876549
H     3.662681    -3.121815     2.555412
O     4.622179    -3.350370     2.481470
H     4.677361    -4.310439     2.608458
H     3.432057    -6.123156     3.127879
O     3.787111    -5.922055     2.227287
H     3.048883    -5.576614     1.685204
H    -3.352532     1.599334    -4.178724
O    -4.201582     1.128612    -4.006890
H    -4.420783     1.239460    -3.042773
H    -4.807462     4.308776    -0.165900
O    -5.211970     3.564786    -0.663947
H    -6.169845     3.678289    -0.670862
H     6.728118    -1.178240    -1.358827
O     5.956054    -1.029034    -0.806755
H     5.537793    -1.897209    -0.608490
H     4.590404    -3.166463    -2.466004
O     3.722648    -2.996254    -2.882492
H     3.726310    -3.615757    -3.637888
H     4.437260    -2.293398     5.626019
O     4.099106    -2.758561     6.421314
H     4.431388    -3.664273     6.337085
H    -0.768580     6.327367     5.087147
O    -1.367499     6.903587     5.623044
H    -1.379510     7.780586     5.182065
H     4.690533    -0.134711    -1.460956
O     3.923049     0.407116    -1.724600
H     3.230177    -0.194457    -2.052138
H    -0.761565     4.515393    -4.027221
O    -1.543815     5.059533    -4.235692
H    -1.390782     5.925680    -3.812785
H     0.644639     3.200635    -2.649612
O     0.649783     3.577440    -3.558862
H     0.699158     2.813289    -4.143247
H    -5.381758    -5.204448     1.804403
O    -4.686067    -5.799382     1.445849
H    -3.845458    -5.382493     1.716027
H     7.874421    -1.682692    -4.031853
O     7.617347    -1.370117    -3.131900
H     7.128283    -0.527316    -3.287326
H     3.698776    -5.071586    -5.285514
O     4.461731    -4.697219    -4.806021
H     4.847148    -5.407364    -4.259714
H    -3.782475    -0.002188     4.942615
O    -4.379820     0.468891     5.578650
H    -5.048379    -0.183920     5.860425
H     3.467009    -5.942123    -0.514005
O     4.338720    -5.694180    -0.834438
H     4.413988    -4.731812    -0.690070
H     4.990449    -0.333333    -4.155898
O     4.456604    -1.045525    -4.546224
H     4.131449    -1.629566    -3.828209
H    -1.185860     1.564161    -3.924214
O    -1.835931     2.184286    -4.312522
H    -1.477565     2.514834    -5.158723
H     4.885894    -6.320053    -2.311931
O     5.219084    -6.644352    -3.177862
H     6.037881    -7.123985    -2.991482
H     8.739627    -5.084093    -2.918252
O     8.049404    -5.502940    -2.359561
H     8.085221    -6.460210    -2.461678
H     2.322701     4.716597     0.459958
O     1.742835     4.700014     1.230504
H     1.389283     3.777257     1.311282
H    -4.424896    -2.653575     4.243293
O    -5.319486    -2.316500     4.043620
H    -5.168798    -1.535769     3.466103
H    -5.845948    -3.211374     1.336632
O    -6.311506    -3.770266     1.999715
H    -6.121977    -3.330646     2.849607
H     1.678684     3.463647     6.870641
O     1.055282     3.981473     6.339416
H     0.270657     4.127975     6.909833
H     4.999422    -2.168166     3.619699
O     5.020748    -1.449507     4.283354
H     4.207406    -0.894473     4.128083
H     2.398362    -5.580359     4.842755
O     2.778807    -6.464439     4.583062
H     2.033598    -7.045773     4.408960
H     2.252127    -4.517563    -6.784380
O     2.084411    -5.006524    -5.968854
H     1.818937    -4.316002    -5.312783
H     6.438333    -4.099349    -0.499753
O     7.193377    -4.500977    -0.038239
H     7.700169    -4.922687    -0.759880
H    -1.736360     4.478491     7.709960
O    -0.839176     4.579412     8.097588
H    -0.659248     5.538510     8.120293
H    -5.137629     5.680354    -5.588191
O    -4.533721     4.915219    -5.610726
H    -3.772693     5.130402    -6.171860
H     3.272392    -2.526638    -8.431444
O     3.185954    -3.060196    -7.630657
H     4.062525    -3.034387    -7.201715
H    -0.683145     8.819639    -2.268013
O    -0.562566     9.648320    -1.748353
H     0.201358     9.475480    -1.173021
H     2.067049    -0.916961     5.217695
O     1.502105    -1.447338     5.808767
H     1.592700    -1.097169     6.704264
H     5.197197    -2.021365    -5.688910
O     5.544303    -2.786770    -6.211802
H     5.272365    -3.577386    -5.694123
H     5.699799    -5.213099     4.688612
O     5.179335    -5.129844     5.516453
H     4.457426    -5.761436     5.430907
H    -3.979321     1.134307     7.012415
O    -3.789984     1.610188     7.859251
H    -4.666353     1.990761     8.120215
H    -1.871762     9.606341    -0.733849
O    -2.732835     9.479192    -0.259568
H    -3.344232     10.107274    -0.647655
H    -5.964294     4.671661    -2.911882
O    -6.880907     4.544484    -3.236604
H    -6.789375     3.852262    -3.925008
H     0.096874    -7.069726    -1.135090
O     0.562654    -7.507260    -0.389509
H    -0.115064    -7.700697     0.261431
H    -7.731328     3.780265    -2.015773
O    -8.006357     3.162192    -1.299228
H    -7.869676     2.274762    -1.715261
H     3.971976    -0.892412     6.990868
O     3.981242     0.071834     6.984585
H     4.791544     0.362155     6.549603
H     2.239901     5.793232    -1.172602
O     3.176528     5.504020    -1.059878
H     3.353121     4.962674    -1.852257
H     6.552768    -5.925859     0.674204
O     6.186074    -6.663143     1.207802
H     5.281391    -6.387435     1.436312
H    -3.881713     4.712124     7.793482
O    -3.317474     4.252531     7.130449
H    -3.503534     3.307332     7.242617
H     5.767879    -7.942710     0.140370
O     5.481202    -8.630292    -0.497317
H     4.650637    -8.306510    -0.890214
H    -0.564280     2.033839     7.702042
O    -1.198792     1.974898     6.968047
H    -2.065571     1.822510     7.363813
H    -6.546723    -0.182528     1.054301
O    -6.759774    -0.315358     0.113515
H    -7.628200    -0.722535     0.059871
H    -5.383877    -3.060233    -0.578389
O    -5.118889    -2.370442     0.055788
H    -5.694453    -1.598616    -0.088390
H     4.300354     5.578515     0.325224
O     4.635908     5.681480     1.229560
H     3.939869     6.187966     1.683418
H    -9.052181    -1.773939    -2.236398
O    -8.513628    -1.562468    -1.445756
H    -8.628738    -2.308013    -0.811656
H    -5.550533     3.459552    -5.506906
O    -6.065238     2.752547    -5.082826
H    -5.390685     2.163376    -4.683711
H     3.169461    -0.888989    -5.648849
O     2.313878    -1.009453    -6.115425
H     2.399700    -1.859065    -6.587559
H     8.103682    -1.342079    -6.027905
O     8.114101    -2.206241    -5.571868
H     7.258061    -2.607493    -5.821012
H     7.606031     0.997607    -6.307284
O     7.418531     0.149382    -6.721355
H     6.437229     0.097285    -6.756221
H    -7.863967    -3.696130     0.939942
O    -8.541114    -3.601393     0.251488
H    -8.437409    -4.367005    -0.341622
H    -2.429899     8.724540     1.305054
O    -2.280131     8.134852     2.057311
H    -1.507028     7.584774     1.835827
H    -4.455193     6.421530     3.521947
O    -4.635389     6.853317     2.669674
H    -3.872924     7.440184     2.526001
H     3.384059     3.446253    -3.571177
O     3.228468     4.415287    -3.478370
H     2.263147     4.477093    -3.584361
H    -6.121213    -1.621762    -3.431201
O    -6.206419    -2.199826    -2.646166
H    -6.987409    -1.894127    -2.136768
H     6.462098     1.053731     4.742304
O     6.069076     1.592251     5.446014
H     6.254347     2.511095     5.153982
H     1.346725     1.718815    -5.815207
O     1.152779     1.123031    -5.061072
H     1.518008     0.260384    -5.329905
H    -2.496251     2.953170     10.492893
O    -2.282490     2.045678     10.220895
H    -2.878718     1.843786     9.487816
H     7.622446    -0.492824     3.085670
O     6.872228     0.082471     3.254864
H     6.180407    -0.518613     3.634682
H    -5.653416    -8.068433    -0.687224
O    -4.919055    -8.136219    -0.040658
H    -4.922900    -7.317955     0.480393
H    -5.183401    -0.134295    -4.709831
O    -5.804881    -0.846642    -4.940024
H    -6.640492    -0.404705    -5.144984
H     1.875760    -0.200572    -7.507988
O     1.672490     0.270810    -8.351965
H     2.249667    -0.133515    -9.005191
H     4.858913    -1.390532    -9.299416
O     3.933326    -1.162830    -9.581453
H     3.912598    -1.282412    -10.530243
H     7.563514    -2.564660     4.201654
O     7.710823    -2.600942     3.242214
H     7.217448    -3.391862     2.970508
H     6.724844    -5.890220     2.686753
O     6.786682    -5.214861     3.387659
H     7.662869    -5.298987     3.804803
H    -1.842184     8.938434     3.506859
O    -1.595091     9.244881     4.404615
H    -2.443736     9.374577     4.861078
H    -7.397670     1.557113    -5.242062
O    -7.972807     0.812107    -4.997640
H    -8.875972     1.206929    -4.927900
H     6.912490    -1.077501    -8.401484
O     6.331820    -1.799670    -8.664942
H     6.105087    -2.249790    -7.832721
H    -1.700739     6.232150    -7.012240
O    -2.100574     5.408423    -6.736897
H    -1.847651     5.276486    -5.774078
H    -0.006258     3.304281     9.032448
O     0.193624     2.385815     9.289402
H    -0.604532     2.119149     9.794525
H     6.750711    -2.774685    -2.702289
O     6.221689    -3.519843    -2.361299
H     6.691263    -4.329944    -2.607874
H    -4.084032    -3.086916    -4.931749
O    -4.240907    -2.974159    -5.896400
H    -4.787644    -2.180889    -5.951388
H     1.974594     2.179891     8.472294
O     2.638162     2.294938     7.782411
H     3.061861     1.425542     7.665403
H    -6.906754    -5.220469    -1.380982
O    -7.823455    -5.489548    -1.626297
H    -7.957364    -5.088738    -2.509468
H    -3.832133     5.241501     5.713103
O    -3.808455     6.010209     5.121374
H    -2.874929     6.308623     5.210941
H    -8.003295     0.031494    -2.062732
O    -7.465393     0.739152    -2.446260
H    -7.677324     0.734499    -3.409300
H     5.829434     0.133926     0.415930
O     5.608302     0.856090     1.036278
H     6.118471     0.660984     1.849278
H    -6.230361     3.288252     7.391380
O    -6.104935     2.784922     8.228727
H    -6.695894     2.015475     8.146212
H     2.282380    -8.075038    -0.836096
O     2.958855    -8.062332    -1.532949
H     2.733969    -8.776795    -2.145508
H    -2.750766    -3.971891    -6.185357
O    -1.995951    -4.536605    -5.954299
H    -1.719544    -4.244928    -5.056942
H    -5.700876     3.715409     5.298305
O    -6.413696     4.055998     5.882955
H    -6.201663     4.984071     6.016229
H    -1.017778    -7.121450    -3.154657
O    -0.546268    -6.450735    -2.627214
H     0.361226    -6.380239    -3.007560
H     4.437419     2.018639     5.134618
O     3.496155     2.259119     5.015343
H     3.111211     2.271322     5.896947
H     4.098703     4.657958     6.306407
O     4.176762     5.389076     5.689070
H     3.609662     5.146734     4.918283
H     2.750462     3.617345     3.930347
O     2.574115     4.557632     3.763246
H     2.453099     4.654098     2.796808
H     9.384252     0.219559    -1.070495
O     8.578769     0.382372    -0.576064
H     8.403706    -0.436488    -0.082666
H    -2.110737     5.313330     10.660617
O    -2.832428     4.684676     10.892573
H    -3.047465     4.859319     11.809023
H     7.969933    -3.002118     0.329351
O     8.390711    -2.155083     0.583939
H     8.325006    -2.149885     1.546288
H     5.359301     3.667428     3.530098
O     6.016238     3.935743     4.194660
H     5.601737     4.651957     4.697385
H    -4.220806     5.009522     9.796797
O    -4.855702     5.158850     9.075934
H    -5.464245     4.407370     9.072687
H    -7.014838    -3.496788    -3.471278
O    -7.637730    -4.104729    -3.921249
H    -7.115820    -4.548455    -4.622302
H     0.016699     6.122533     10.780384
O    -0.847626     6.455149     10.533776
H    -0.732042     6.884600     9.666890
H     2.575095     1.494525    -4.097512
O     3.453401     1.848635    -3.860890
H     3.775071     1.334307    -3.090195
H    -6.967919    -0.236108     7.236885
O    -7.483060     0.539302     7.516857
H    -8.106835     0.714809     6.811492
H    -2.736421    -9.882903    -0.818110
O    -2.675637    -8.941492    -0.980114
H    -3.581004    -8.575902    -0.736416
H    -10.086309     3.059468    -4.878242
O    -10.197997     2.140279    -4.601111
H    -10.426014     2.216225    -3.654602
H    -2.073403    -3.028634     4.623492
O    -2.938552    -3.484840     4.702288
H    -2.936310    -4.091576     3.937774
H    -0.171243    -7.987433     2.495073
O     0.655949    -7.778829     2.942392
H     1.373307    -8.071994     2.353292
H     6.706735    -2.370286     6.394848
O     7.157763    -3.079644     5.932109
H     6.528425    -3.815074     5.893683
H    -5.275169    -2.011552     6.952253
O    -5.955287    -1.517073     6.470496
H    -5.929952    -1.888163     5.556785
H     0.817155     3.028288    -7.106571
O     1.735453     2.700055    -7.164874
H     1.722001     1.951122    -7.789068
H    -3.967343     8.748347     6.684221
O    -3.973645     8.743010     5.726856
H    -4.094318     7.813585     5.463653
H    -2.088707     10.303988    -2.727268
O    -2.990644     10.483886    -3.029497
H    -2.919372     11.119587    -3.740889
H     9.411821    -4.050878     4.045038
O     9.135858    -4.729667     4.668603
H     8.704287    -4.258401     5.392273
H    -0.738418    -6.003493    -5.830122
O    -0.033787    -6.570060    -5.499256
H     0.800863    -6.106546    -5.716007
H     1.804297     8.273579     0.670921
O     1.499265     8.595701    -0.206112
H     2.313244     8.633388    -0.737764
H     3.479448     2.929613    -6.656203
O     4.307991     2.640963    -6.247792
H     4.064074     2.366641    -5.338589
H     3.711809     7.125865    -1.224732
O     3.915642     8.062063    -1.438840
H     4.284687     8.005770    -2.332228
H     4.379339    -0.005818    -7.906647
O     4.758111     0.141239    -7.038128
H     4.574665     1.072620    -6.793788
H     6.018646     1.937342    -0.472648
O     6.583316     2.131612    -1.234752
H     7.408537     1.652940    -1.041150
H     6.687487    -8.426058    -1.603369
O     7.322829    -8.215295    -2.340652
H     7.688870    -9.049628    -2.629080
H    -5.306680    -5.802101    -5.391878
O    -5.925087    -5.130892    -5.706307
H    -5.374180    -4.362542    -5.943627
H     0.668976     7.169619     7.608789
O    -0.232364     7.198098     7.968989
H    -0.788501     7.210295     7.152169
H    -8.905302    -2.855397    -4.080953
O    -9.422198    -2.043648    -3.914261
H    -9.139632    -1.385720    -4.553129
H    -2.411487    -5.995877    -2.129664
O    -3.290326    -5.712555    -2.399392
H    -3.476129    -6.088297    -3.284583
H    -2.989817    -5.910264    -5.397134
O    -3.589716    -6.521124    -4.926418
H    -3.105853    -7.339854    -4.757355
H    -1.412848     3.718060    -6.973747
O    -0.869469     2.964578    -6.703468
H    -1.104876     2.177765    -7.251925
H    -0.220911     0.412064    -8.206555
O    -1.117192     0.645749    -7.922482
H    -1.289668     0.122509    -7.123478
H    -10.582114     4.046930    -2.893258
O    -10.713356     3.320086    -2.259938
H    -9.860278     3.276338    -1.793977
H     4.568637     4.082396     1.724921
O     4.361235     3.162129     2.005199
H     5.075784     2.585483     1.722001
H     6.471608     1.403298    -4.216235
O     6.170199     0.778560    -3.522324
H     6.200583     1.273784    -2.678275
H     9.627353    -2.216253    -0.929313
O     9.903016    -2.001409    -1.829337
H     9.101602    -1.664022    -2.271961
H     9.963314    -3.310559    -3.098394
O     9.697630    -3.962942    -3.773586
H     9.301556    -3.455993    -4.493007
H    -7.694317    -8.592316    -1.646393
O    -6.957956    -7.997419    -1.780536
H    -7.336004    -7.084897    -1.768724
H     4.138660     6.082240    -3.815601
O     4.798627     6.784841    -3.732432
H     5.635583     6.332322    -3.594648
H     0.097339    -8.175817    -5.205733
O     0.122866    -9.158754    -5.074411
H     0.274006    -9.521647    -5.947214
H    -2.330636    -8.681225    -2.704277
O    -2.098942    -8.418695    -3.614889
H    -1.450436    -9.035671    -3.972703
H     2.188104    -10.818623    -3.487467
O     2.142135    -9.864045    -3.464885
H     1.355369    -9.594138    -3.989487
H     6.817491     3.336494    -4.571860
O     6.876765     2.658962    -5.273292
H     6.081994     2.789885    -5.812624
H    -3.559744    -3.732377     7.730884
O    -3.675291    -2.942058     7.204842
H    -3.426531    -3.178077     6.284721
H    -0.646993    -3.368462    -6.713748
O    -0.018556    -2.635515    -6.724051
H    -0.500549    -1.861012    -6.380251
H     0.639484     0.458245     8.762054
O     0.649202    -0.255928     8.120927
H    -0.272099    -0.548347     8.033764
H    -5.859625     7.353358    -4.233183
O    -6.366967     6.732249    -4.788651
H    -6.647288     6.003661    -4.194176
H    -4.309514     9.089427    -3.253993
O    -4.846897     8.295264    -3.141477
H    -4.429121     7.814026    -2.408573
H    -9.736899     5.777727    -4.616999
O    -10.271064     4.973343    -4.451073
H    -11.145450     5.167838    -4.790354
H     2.754641     6.515588     6.146412
O     1.794428     6.611342     6.244809
H     1.452613     5.696734     6.144442
H     4.781030     8.550184     0.087758
O     5.099501     8.552251     1.008326
H     5.507040     7.688201     1.139519
H     4.142661    -7.424406    -4.336793
O     3.385511    -7.711221    -4.879423
H     3.106092    -8.551866    -4.501945
H     0.359824     8.656205     4.244579
O     1.037237     8.012079     4.014716
H     1.266104     7.518803     4.828774
H     5.217052     4.194213    -3.153853
O     6.178621     4.166665    -3.101869
H     6.389285     3.585191    -2.354440
H    -2.573525    -1.552280     7.581954
O    -2.065615    -0.759194     7.809407
H    -2.697054    -0.134074     8.175716
H    -9.052350     7.923214    -4.132408
O    -8.992603     7.327288    -4.880503
H    -8.035315     7.167388    -5.021122
H     3.540097    -8.978288     1.096053
O     2.861283    -8.348891     1.344957
H     3.333030    -7.542026     1.625598
H     3.564273     8.173229     1.833560
O     2.773478     7.610208     1.946429
H     2.329843     7.843753     2.774452
N    -7.220435     2.565943     1.544311
H    -7.588218     3.213008     2.152572
H    -7.620148     2.782210     0.687720
