24

H     4.199855     5.542943     0.300731
O     4.532790     5.604598     1.215504
H     3.881263     6.209618     1.642041
H     4.032265     4.739641     6.253355
O     4.180692     5.429981     5.594822
H     3.584707     5.160561     4.848674
H     5.519437     3.619505     3.517766
O     6.172066     3.977412     4.145993
H     5.642416     4.569639     4.707488
H     3.768989     7.143620    -1.218895
O     3.927091     8.078030    -1.463824
H     4.220322     7.991729    -2.385596
H     4.531724     3.925270     1.677942
O     4.356042     3.013545     1.993819
H     5.033944     2.430202     1.626224
H     4.738069     8.930298     0.110958
O     4.887033     9.148717     1.048505
H     5.662604     8.607440     1.292297
H     3.546567     8.339390     1.781080
O     2.829278     7.670822     1.925510
H     2.324143     7.909661     2.723276
N     6.811457     7.140174     1.589862
H     6.098628     6.489998     1.421260
H     7.133052     6.913180     2.467853
