21
Coordinates from ORCA-job grain_mol_opt.QMRegion
  H   4.19083549578754      5.52269624164481      0.36934255503677
  O   4.61985449499831      5.67374789350930      1.23328508677561
  H   3.95405085308545      6.20903731705694      1.71492988037592
  H   1.88329000575891      8.35785518223371      0.74632799990926
  O   1.52636099099089      8.59600067333078     -0.13562288120918
  H   2.30690099986259      8.62476852941868     -0.71320662755831
  H   3.73687341848866      7.10806439156431     -1.21312767411825
  O   3.97263151143717      8.02492327045981     -1.47000070969652
  H   4.29596405487974      7.88517841317896     -2.38108483247731
  H   5.48170076665827      8.18325223248105     -0.30473322916891
  O   6.08928809929437      8.02399418109109      0.44325159516069
  H   5.83162191671141      7.12682280088987      0.72409279519685
  H   0.31166464717050      8.60486273576609      4.35602258073943
  O   0.95755231431070      7.92063077164357      4.13577470100592
  H   1.17275926885411      7.44382323524477      4.96556771315388
  H   3.58012266233706      8.35201447532485      2.32529877639171
  O   2.85521271926074      7.70895254257821      2.14656166166923
  H   2.26724997971741      7.77630787352046      2.92483754322727
  O   4.99680909117152      9.32626100678461      2.54094127699203
  H   5.49741310467229      8.93940222443097      1.77496000914885
  H   5.49082789494662      9.05030135383126      3.31859920580651
