33

H    -0.199710    -3.432884     3.750101
O    -0.526539    -2.645847     4.214271
H     0.155239    -2.428725     4.872264
H    -2.491788    -3.610272     1.880252
O    -2.536741    -4.496640     2.304251
H    -1.608763    -4.815823     2.331370
H     1.936242    -1.723225     2.921356
O     2.060561    -2.674899     2.790128
H     1.421099    -2.896203     2.081746
H     0.683102    -5.098772     1.901137
O     0.127864    -5.094329     2.709074
H     0.236462    -6.006910     3.037363
H     1.989467    -3.608820     4.334572
O     1.968570    -4.070289     5.199470
H     2.487496    -3.485483     5.789080
H     2.393318    -5.645444     4.889753
O     2.761055    -6.528112     4.632414
H     2.010286    -7.114315     4.498802
H     2.014997    -0.762196     5.283951
O     1.472587    -1.320514     5.874440
H     1.482917    -0.907782     6.757043
H    -2.230538    -2.936649     4.613566
O    -3.024795    -3.499720     4.725410
H    -2.998845    -4.036307     3.898121
H    -0.245201    -8.054069     2.426649
O     0.589892    -7.872972     2.876925
H     1.290849    -8.131691     2.247192
H    -3.761885    -3.551845     7.862250
O    -3.783588    -2.844688     7.217787
H    -3.568794    -3.240646     6.345172
N    -0.611970    -5.465085     5.732052
H     0.180927    -4.908527     5.726353
H    -1.332003    -4.846095     5.560637
