603

H     0.195848     3.008620    -0.691455
O     0.716417     2.337707    -1.183781
H     1.655936     2.465387    -0.912194
H    -0.080262    -1.314521     3.155042
O     0.311979    -0.617254     2.606971
H    -0.163325     0.198136     2.838636
H    -2.404181     2.394551    -0.539779
O    -2.191547     1.926314     0.284980
H    -2.211963     0.977678     0.063633
H    -4.665509     0.545933     2.190487
O    -4.984441    -0.386690     2.207958
H    -4.482984    -0.867956     1.541643
H     0.056087    -0.324779     0.952073
O    -0.141260    -0.091468     0.024246
H     0.197496     0.804946    -0.099251
H    -0.162097    -3.582587     3.791092
O    -0.437586    -2.749798     4.208459
H     0.210088    -2.578291     4.908580
H    -4.886952     2.526933     1.331792
O    -4.246713     2.118248     1.946355
H    -3.405336     2.097032     1.431676
H    -3.255346     3.877889    -2.218835
O    -2.518437     3.279981    -1.987844
H    -2.162867     2.988594    -2.847406
H    -0.142524    -3.822435     0.517873
O     0.201500    -3.003487     0.929997
H    -0.583691    -2.514161     1.242981
H    -2.384349    -1.543787     2.480206
O    -2.197735    -2.012900     1.640419
H    -2.457730    -1.428260     0.909547
H     2.056127    -1.471801    -1.121533
O     2.291177    -1.722782    -0.204763
H     1.501720    -2.145951     0.183941
H    -1.391779     1.815482     1.907683
O    -1.481639     1.420844     2.785248
H    -1.464456     2.135367     3.447875
H     0.187443    -2.729097    -1.559971
O    -0.565208    -2.114331    -1.617843
H    -0.383565    -1.387051    -0.985615
H    -3.454332    -2.939402    -0.373324
O    -2.738422    -3.433584    -0.794014
H    -2.028086    -2.804580    -1.015717
H     2.770064     0.113886     2.925310
O     2.871906    -0.065733     3.887152
H     2.965860     0.828334     4.288757
H    -3.526322     6.366740    -0.558577
O    -3.288011     7.026150    -1.261831
H    -3.143468     7.872732    -0.795019
H     3.896454     0.559927     1.172872
O     2.945826     0.380527     1.291461
H     2.705539    -0.373573     0.715797
H    -5.793392     0.830179    -1.594267
O    -4.881858     1.156016    -1.471669
H    -4.989864     1.986608    -0.962895
H    -1.204232     5.388488     2.192469
O    -1.830682     4.641987     2.079761
H    -1.907741     4.226851     2.944065
H     3.490669     2.737723     0.405212
O     3.240381     2.691417    -0.533265
H     3.570265     1.846722    -0.880824
H     1.461998    -4.728175    -2.234276
O     1.531564    -3.947288    -1.667721
H     2.326841    -3.490605    -2.021934
H    -0.938499    -0.111403    -2.547068
O    -0.302173     0.537218    -2.874834
H    -0.039656     1.122473    -2.140842
H     1.677751    -4.709243    -0.165789
O     1.788754    -5.344991     0.576731
H     1.319349    -6.155474     0.286321
H    -1.252448    -3.293060    -2.867038
O    -1.078425    -3.978312    -3.525648
H    -0.958881    -4.824809    -3.054078
H    -2.771275     3.312596     4.698238
O    -1.790087     3.307492     4.661653
H    -1.496161     2.908261     5.498756
H     0.973345     5.027694     4.054081
O     0.027918     5.262088     4.107379
H    -0.445214     4.461016     4.369707
H    -1.751594    -4.667800    -0.350533
O    -0.986286    -5.207507    -0.064182
H    -1.333845    -5.894137     0.514483
H    -3.921676     5.812270    -2.610497
O    -4.274576     4.977566    -2.936460
H    -4.122648     4.939267    -3.904980
H    -2.443759    -3.696168     1.954514
O    -2.463288    -4.598812     2.333861
H    -1.523871    -4.838922     2.472575
H    -4.719261    -2.998731    -2.877607
O    -3.868226    -3.234814    -3.285016
H    -3.539240    -4.028693    -2.818356
H     0.344073     1.373538     4.607658
O     0.851363     2.131023     4.269832
H     0.902946     2.792673     4.974026
H    -4.680977    -5.185152    -1.541808
O    -5.380021    -4.827292    -0.967336
H    -5.165817    -5.179680    -0.082596
H     2.312381    -6.573819    -3.935271
O     1.972079    -6.236040    -3.096238
H     2.372418    -6.840076    -2.430713
H     0.441299    -3.421006    -3.995414
O     1.245785    -3.065852    -4.427012
H     0.920398    -2.687910    -5.270629
H     1.957623    -1.766154     2.982240
O     2.110825    -2.697885     2.766987
H     1.421953    -2.912538     2.103351
H    -3.037483    -1.833053    -3.196945
O    -2.612290    -0.947473    -3.138018
H    -3.267951    -0.301349    -3.456555
H    -3.186779     4.967295     1.068663
O    -3.968752     5.340847     0.614745
H    -4.380937     5.902144     1.320000
H     0.877213     2.241546     2.579218
O     0.975796     2.232987     1.607730
H     1.701120     1.607795     1.444228
H     0.190786     5.634297    -0.780466
O     0.712667     6.292954    -1.293224
H     0.857835     7.094663    -0.740920
H     0.355106     7.025292     2.563060
O    -0.009806     6.642644     1.747914
H     0.652024     5.969589     1.487429
H    -2.481212     0.213444     3.345266
O    -2.703138    -0.598521     3.853393
H    -1.941311    -0.637176     4.473554
H    -0.887474     0.558355     6.024121
O    -0.616350     0.035634     5.250807
H     0.096222    -0.568566     5.538104
H     0.693961    -5.008399     1.995277
O     0.154098    -5.113457     2.801761
H     0.296388    -6.033776     3.076289
H    -2.144970    -8.102100     0.480430
O    -1.820034    -7.610340     1.262425
H    -2.604905    -7.297689     1.719923
H    -0.380706     6.836745    -2.350594
O    -1.127585     7.256203    -2.849499
H    -1.916291     7.134069    -2.283097
H    -1.112411     4.294875     0.559862
O    -0.741823     4.351411    -0.337549
H    -1.451001     4.109220    -0.966928
H    -4.404590     2.750453     3.507242
O    -4.399849     2.924309     4.471151
H    -4.484298     2.042957     4.883719
H     2.016941    -3.590956     4.250601
O     1.955065    -4.060477     5.105392
H     2.463895    -3.522214     5.733237
H     4.672088    -3.223440     0.836769
O     4.509561    -3.151584    -0.129942
H     3.651701    -2.671898    -0.212304
H    -2.738293    -0.766481    -1.343926
O    -3.062254    -0.492303    -0.469630
H    -3.862670     0.033979    -0.675832
H    -1.641287    -0.793797    -4.626854
O    -1.132929    -0.584173    -5.431825
H    -0.424262     0.015241    -5.150087
H     1.770536    -1.752449    -3.378210
O     1.867037    -1.003340    -2.759737
H     1.089689    -0.425053    -2.888129
H     3.652554    -3.140451     2.550614
O     4.610820    -3.372320     2.474590
H     4.663481    -4.331847     2.606827
H     3.410945    -6.137630     3.135339
O     3.764902    -5.940701     2.233301
H     3.026117    -5.595656     1.691634
H    -3.361984     1.584544    -4.175643
O    -4.206873     1.115825    -3.981112
H    -4.422143     1.265536    -3.024437
H    -5.083602     4.139992     0.063454
O    -5.524030     3.274413    -0.035823
H    -6.455107     3.394453    -0.315236
H     6.718138    -1.222455    -1.376021
O     5.946079    -1.069833    -0.824825
H     5.526452    -1.935970    -0.622103
H     4.570586    -3.206178    -2.470773
O     3.701992    -3.035361    -2.885744
H     3.703187    -3.655557    -3.639166
H     4.434438    -2.303191     5.616840
O     4.092640    -2.764947     6.412577
H     4.425115    -3.671086     6.333574
H    -0.736785     6.338537     5.052644
O    -1.330707     6.917587     5.590258
H    -1.343482     7.793100     5.145673
H     4.683673    -0.172511    -1.479344
O     3.916934     0.370217    -1.743323
H     3.221977    -0.230053    -2.067978
H    -0.753338     4.491501    -4.052831
O    -1.535475     5.035096    -4.261223
H    -1.381645     5.903015    -3.841965
H     0.649253     3.173359    -2.672588
O     0.655417     3.546539    -3.582677
H     0.698440     2.780803    -4.165409
H    -5.401420    -5.194088     1.826042
O    -4.706975    -5.791268     1.470692
H    -3.864772    -5.376827     1.738064
H     7.856758    -1.742506    -4.049722
O     7.600767    -1.426385    -3.150807
H     7.115971    -0.581453    -3.308711
H     3.688438    -5.071811    -5.246559
O     4.458342    -4.726465    -4.756575
H     4.836132    -5.429800    -4.197686
H    -3.781962     0.025160     4.943234
O    -4.379615     0.493093     5.575776
H    -5.040629    -0.162306     5.871986
H     3.439555    -5.971923    -0.507523
O     4.307912    -5.727623    -0.839901
H     4.390295    -4.766057    -0.693051
H     4.978002    -0.380845    -4.175381
O     4.441100    -1.094019    -4.560390
H     4.115081    -1.671476    -3.837966
H    -1.189380     1.540816    -3.940703
O    -1.839594     2.160992    -4.327169
H    -1.483718     2.489468    -5.175355
H     4.847686    -6.365243    -2.308830
O     5.180136    -6.695768    -3.173924
H     5.999728    -7.174583    -2.985157
H     8.709085    -5.143326    -2.925415
O     8.015813    -5.558001    -2.366890
H     8.051636    -6.515947    -2.462803
H     2.339408     4.696146     0.426436
O     1.762373     4.682305     1.199304
H     1.402866     3.763241     1.281421
H    -4.420929    -2.628345     4.251529
O    -5.314628    -2.287423     4.050350
H    -5.177600    -1.508762     3.471587
H    -5.860707    -3.196684     1.343572
O    -6.323088    -3.750001     2.015128
H    -6.131414    -3.312051     2.863645
H     1.701931     3.470431     6.843697
O     1.078762     3.985288     6.309449
H     0.297732     4.142527     6.882691
H     4.994924    -2.187018     3.608725
O     5.019077    -1.466401     4.270003
H     4.207832    -0.908885     4.114028
H     2.380439    -5.584256     4.850629
O     2.757859    -6.469694     4.592124
H     2.010947    -7.050397     4.423225
H     2.218873    -4.439823    -6.752429
O     2.070947    -4.957728    -5.944795
H     1.818267    -4.257729    -5.279751
H     6.417531    -4.139679    -0.507215
O     7.171153    -4.543659    -0.045610
H     7.675519    -4.969932    -0.766195
H    -1.705035     4.502794     7.687698
O    -0.804724     4.600370     8.069909
H    -0.621803     5.559242     8.090589
H    -5.131924     5.665209    -5.604792
O    -4.525652     4.900527    -5.623924
H    -3.769940     5.111197    -6.193265
H     3.239764    -2.589571    -8.437283
O     3.160334    -3.122873    -7.635178
H     4.038003    -3.084582    -7.207670
H    -0.657014     8.800558    -2.310955
O    -0.530707     9.630675    -1.795664
H     0.232632     9.456789    -1.220186
H     2.067461    -0.917445     5.208287
O     1.495336    -1.440411     5.798867
H     1.591641    -1.091817     6.694584
H     5.174470    -2.072541    -5.701928
O     5.514100    -2.841869    -6.224560
H     5.250952    -3.628392    -5.697909
H     5.684923    -5.230849     4.688104
O     5.165383    -5.141186     5.515811
H     4.442281    -5.772058     5.435438
H    -3.963716     1.161871     7.012142
O    -3.768089     1.640598     7.853469
H    -4.642653     2.029113     8.115334
H    -1.842677     9.596929    -0.778109
O    -2.702001     9.474029    -0.300815
H    -3.312956     10.102441    -0.689161
H    -5.956964     4.672890    -2.941277
O    -6.866780     4.554723    -3.282626
H    -6.780005     3.849512    -3.957199
H     0.065690    -7.089879    -1.115131
O     0.532898    -7.519561    -0.365111
H    -0.146056    -7.716228     0.283269
H    -7.645649     3.782024    -1.968299
O    -7.905776     3.198437    -1.225169
H    -7.766134     2.288115    -1.561784
H     3.979265    -0.895370     6.977701
O     3.989947     0.068706     6.964307
H     4.802003     0.355069     6.529940
H     2.256956     5.767058    -1.208799
O     3.192264     5.472590    -1.096417
H     3.365275     4.929213    -1.888048
H     6.526773    -5.962366     0.675061
O     6.156990    -6.697037     1.209980
H     5.255163    -6.415778     1.442739
H    -3.847724     4.747879     7.772196
O    -3.283889     4.281333     7.113380
H    -3.479267     3.338792     7.227944
H     5.733073    -7.978632     0.149162
O     5.443468    -8.665241    -0.488264
H     4.609485    -8.343386    -0.875033
H    -0.543268     2.052528     7.685760
O    -1.178594     1.986463     6.952604
H    -2.046331     1.848447     7.352113
H    -6.391855    -0.122108     1.079136
O    -6.714282    -0.208334     0.167300
H    -7.633548    -0.477169     0.188430
H    -5.391819    -3.073655    -0.562768
O    -5.135688    -2.368878     0.058635
H    -5.705234    -1.595949    -0.130162
H     4.319528     5.549686     0.285958
O     4.656384     5.652653     1.189795
H     3.964536     6.166412     1.642271
H    -9.065466    -1.751767    -2.223111
O    -8.514531    -1.548755    -1.439589
H    -8.642015    -2.282626    -0.798647
H    -5.543256     3.443937    -5.526820
O    -6.060936     2.735891    -5.108089
H    -5.394762     2.150493    -4.693830
H     3.151906    -0.936791    -5.661813
O     2.294127    -1.058613    -6.123966
H     2.375785    -1.908563    -6.594620
H     8.083867    -1.409524    -6.047886
O     8.090857    -2.272224    -5.588797
H     7.233766    -2.670826    -5.836368
H     7.594059     0.929494    -6.336654
O     7.401245     0.079921    -6.745548
H     6.419780     0.032953    -6.779111
H    -7.878216    -3.690223     0.964343
O    -8.557910    -3.583874     0.281189
H    -8.463458    -4.346048    -0.317727
H    -2.395569     8.728140     1.265170
O    -2.243846     8.142088     2.019960
H    -1.475526     7.586525     1.797044
H    -4.431176     6.439972     3.483454
O    -4.602726     6.862853     2.625661
H    -3.838600     7.446833     2.481841
H     3.387303     3.405352    -3.601417
O     3.236507     4.375186    -3.511702
H     2.271378     4.441807    -3.616216
H    -6.140996    -1.623355    -3.420354
O    -6.221914    -2.199239    -2.633816
H    -7.004383    -1.889366    -2.124268
H     6.472101     1.033532     4.715981
O     6.081158     1.575619     5.418014
H     6.270071     2.492908     5.123145
H     1.337549     1.678240    -5.834444
O     1.143717     1.085503    -5.077414
H     1.504290     0.220766    -5.344358
H    -2.464990     2.989829     10.478291
O    -2.255428     2.080809     10.207646
H    -2.855839     1.879679     9.477894
H     7.623417    -0.523585     3.063074
O     6.874963     0.054478     3.230577
H     6.182400    -0.542389     3.615092
H    -5.691139    -8.063654    -0.655518
O    -4.954278    -8.130714    -0.011281
H    -4.955748    -7.311753     0.507880
H    -5.203006    -0.143325    -4.701621
O    -5.821814    -0.854800    -4.937595
H    -6.659929    -0.412443    -5.134450
H     1.856666    -0.250609    -7.520874
O     1.653899     0.217067    -8.366367
H     2.227683    -0.192071    -9.019546
H     4.829858    -1.461868    -9.313937
O     3.902742    -1.237097    -9.593022
H     3.881478    -1.350364    -10.542643
H     7.558497    -2.591399     4.186812
O     7.702108    -2.631836     3.226966
H     7.206223    -3.422862     2.960340
H     6.704045    -5.920915     2.687709
O     6.768640    -5.241872     3.384403
H     7.645134    -5.326699     3.801395
H    -1.802466     8.946190     3.466663
O    -1.551382     9.253658     4.363100
H    -2.398521     9.389917     4.820567
H    -7.413266     1.545850    -5.237330
O    -7.988645     0.803797    -4.987473
H    -8.889472     1.205406    -4.910670
H     6.888394    -1.147639    -8.422803
O     6.304206    -1.868879    -8.680964
H     6.079204    -2.314457    -7.846227
H    -1.694231     6.199198    -7.043128
O    -2.091841     5.375203    -6.765356
H    -1.841815     5.248411    -5.801592
H     0.021778     3.326552     9.009365
O     0.217494     2.407302     9.267335
H    -0.580004     2.146937     9.777107
H     6.730337    -2.823932    -2.714053
O     6.198810    -3.567024    -2.371778
H     6.669184    -4.378474    -2.612503
H    -4.113096    -3.100102    -4.920193
O    -4.268588    -2.990315    -5.885276
H    -4.814606    -2.196589    -5.943635
H     1.996891     2.192911     8.450149
O     2.659015     2.300870     7.757681
H     3.078819     1.429165     7.644773
H    -6.935672    -5.209579    -1.357256
O    -7.852813    -5.477239    -1.598678
H    -7.988107    -5.078542    -2.483048
H    -3.811177     5.268240     5.686621
O    -3.778244     6.034112     5.092499
H    -2.843444     6.326911     5.183061
H    -7.902074     0.079798    -1.945531
O    -7.411718     0.800661    -2.363228
H    -7.643033     0.786567    -3.315710
H     5.827361     0.098650     0.394293
O     5.608948     0.823399     1.012416
H     6.120614     0.630422     1.825075
H    -6.198732     3.335552     7.399913
O    -6.069550     2.820213     8.230143
H    -6.671893     2.059984     8.146585
H     2.250798    -8.096814    -0.808833
O     2.916102    -8.095153    -1.516775
H     2.672860    -8.820417    -2.109872
H    -2.794985    -3.985825    -6.178355
O    -2.035747    -4.545610    -5.949128
H    -1.761268    -4.257789    -5.049987
H    -5.632041     3.776623     5.309577
O    -6.278425     4.176998     5.927102
H    -6.112954     5.120637     5.909480
H    -1.063068    -7.145533    -3.109672
O    -0.582095    -6.471120    -2.592590
H     0.315183    -6.404457    -2.990614
H     4.451598     2.006963     5.108186
O     3.510223     2.247897     4.989475
H     3.128287     2.268724     5.872322
H     4.125793     4.653133     6.271065
O     4.207406     5.380233     5.649502
H     3.636518     5.138408     4.881459
H     2.772058     3.607249     3.900463
O     2.596698     4.547157     3.731186
H     2.474291     4.642240     2.764807
H     9.380266     0.166566    -1.097995
O     8.573923     0.331523    -0.605766
H     8.399000    -0.483948    -0.106868
H    -2.070780     5.348625     10.635356
O    -2.793488     4.722556     10.871145
H    -3.009101     4.904036     11.786145
H     7.955316    -3.046125     0.316705
O     8.378808    -2.199288     0.566634
H     8.316041    -2.190002     1.529193
H     5.376831     3.647347     3.495335
O     6.036021     3.913690     4.158167
H     5.626521     4.634343     4.658871
H    -4.181968     5.052288     9.776493
O    -4.816591     5.201744     9.055508
H    -5.430324     4.454652     9.057886
H    -7.040451    -3.494131    -3.452848
O    -7.664000    -4.105664    -3.897178
H    -7.146246    -4.552668    -4.598636
H     0.060034     6.152727     10.746337
O    -0.804549     6.484931     10.500162
H    -0.690305     6.911943     9.631907
H     2.568850     1.455368    -4.118617
O     3.449683     1.805377    -3.885243
H     3.770083     1.294098    -3.112280
H    -6.964838    -0.192082     7.239444
O    -7.470592     0.588915     7.517934
H    -8.095668     0.770644     6.815082
H    -2.776793    -9.888544    -0.789705
O    -2.714148    -8.946952    -0.950611
H    -3.618643    -8.579723    -0.707607
H    -10.087382     3.062108    -4.882414
O    -10.205392     2.145965    -4.597806
H    -10.418584     2.234068    -3.647869
H    -2.073812    -3.019701     4.630945
O    -2.949411    -3.457546     4.704930
H    -2.947055    -4.078496     3.951179
H    -0.202200    -7.991329     2.517409
O     0.626656    -7.780273     2.960491
H     1.341403    -8.081237     2.372009
H     6.707370    -2.384952     6.381877
O     7.153108    -3.097626     5.919193
H     6.521265    -3.831134     5.886719
H    -5.269259    -1.981695     6.965887
O    -5.945582    -1.483742     6.481852
H    -5.933202    -1.864622     5.574241
H     0.811110     2.984891    -7.129204
O     1.727594     2.650727    -7.186609
H     1.709642     1.901974    -7.810543
H    -3.927733     8.774338     6.648750
O    -3.928030     8.768175     5.691399
H    -4.056557     7.839894     5.427861
H    -2.055147     10.289929    -2.772773
O    -2.957347     10.472042    -3.072595
H    -2.886666     11.103299    -3.787989
H     9.401067    -4.086347     4.033240
O     9.120293    -4.761784     4.658258
H     8.694880    -4.285879     5.382515
H    -0.889502    -5.902978    -5.888339
O    -0.180589    -6.483386    -5.578623
H     0.639251    -5.972673    -5.730968
H     1.834821     8.255126     0.626013
O     1.529732     8.573922    -0.252037
H     2.342956     8.608297    -0.784944
H     3.474579     2.876649    -6.684748
O     4.302327     2.584160    -6.277341
H     4.059282     2.316577    -5.366022
H     3.734515     7.092808    -1.269470
O     3.941988     8.027116    -1.487283
H     4.308240     7.966772    -2.381510
H     4.360216    -0.066029    -7.926265
O     4.738829     0.080286    -7.057552
H     4.561605     1.013996    -6.816372
H     6.021809     1.898545    -0.501243
O     6.584700     2.086204    -1.266233
H     7.409174     1.606473    -1.072365
H     6.646118    -8.472513    -1.597305
O     7.275992    -8.265261    -2.340578
H     7.647395    -9.100044    -2.620962
H    -5.342667    -5.817036    -5.369830
O    -5.958729    -5.143826    -5.684139
H    -5.406762    -4.378451    -5.927109
H     0.709121     7.183959     7.570148
O    -0.191284     7.214891     7.932154
H    -0.749205     7.227696     7.116309
H    -8.928250    -2.847040    -4.065932
O    -9.445662    -2.036220    -3.900114
H    -9.160295    -1.375118    -4.534491
H    -2.445151    -6.009777    -2.109993
O    -3.320757    -5.719338    -2.382100
H    -3.510113    -6.100427    -3.264906
H    -3.030738    -5.933530    -5.380963
O    -3.625728    -6.538561    -4.898906
H    -3.144520    -7.360881    -4.739735
H    -1.412949     3.685199    -6.993624
O    -0.873804     2.928632    -6.722362
H    -1.115758     2.142413    -7.268220
H    -0.239693     0.367101    -8.217901
O    -1.134097     0.605254    -7.932236
H    -1.308113     0.085265    -7.131680
H    -10.433311     4.049048    -2.720885
O    -10.500813     3.272727    -2.149568
H    -9.670200     3.246493    -1.642797
H     4.582410     4.058256     1.690576
O     4.372716     3.138485     1.972234
H     5.087244     2.560409     1.692163
H     6.464701     1.347665    -4.244590
O     6.162205     0.726306    -3.547738
H     6.196394     1.224923    -2.705761
H     9.613477    -2.271243    -0.948479
O     9.887217    -2.063027    -1.850603
H     9.086921    -1.722103    -2.292271
H     9.940802    -3.376706    -3.113886
O     9.668832    -4.030352    -3.785414
H     9.276634    -3.523774    -4.507145
H    -7.734109    -8.582064    -1.613543
O    -6.996081    -7.988301    -1.743309
H    -7.372887    -7.075140    -1.735682
H     4.151770     6.037813    -3.857766
O     4.814784     6.737773    -3.777693
H     5.650416     6.282683    -3.640644
H    -0.032713    -8.131789    -5.125216
O     0.137388    -9.100169    -5.018470
H     0.611789    -9.280436    -5.849642
H    -2.365343    -8.702399    -2.682382
O    -2.121013    -8.430419    -3.586924
H    -1.502608    -9.067068    -3.958896
H     2.238950    -10.760613    -3.539468
O     2.100199    -9.820066    -3.423987
H     1.295425    -9.550407    -3.955464
H     6.818589     3.277385    -4.608342
O     6.872476     2.595941    -5.306495
H     6.078119     2.729911    -5.845670
H    -3.563263    -3.701536     7.745215
O    -3.676561    -2.915441     7.212418
H    -3.428835    -3.158877     6.294316
H    -0.683352    -3.402642    -6.708645
O    -0.043895    -2.678677    -6.721619
H    -0.518531    -1.897173    -6.383342
H     0.656148     0.476029     8.748068
O     0.659971    -0.241258     8.110241
H    -0.263267    -0.528236     8.026709
H    -5.841249     7.347433    -4.264647
O    -6.346901     6.727295    -4.821782
H    -6.634312     5.999707    -4.226690
H    -4.279102     9.082942    -3.287696
O    -4.815969     8.288205    -3.176916
H    -4.406787     7.810971    -2.436986
H    -9.723798     5.784003    -4.641466
O    -10.258336     4.981129    -4.473128
H    -11.139499     5.182618    -4.790024
H     2.789666     6.515627     6.105601
O     1.830090     6.614609     6.205719
H     1.484110     5.701632     6.108260
H     4.811765     8.518452     0.035593
O     5.131934     8.522156     0.955535
H     5.537253     7.657468     1.088744
H     4.231945    -7.545160    -4.336810
O     3.467769    -7.884431    -4.840599
H     3.178257    -8.668598    -4.328968
H     0.397435     8.657817     4.198009
O     1.073000     8.010718     3.970454
H     1.300745     7.520684     4.786467
H     5.223823     4.149079    -3.190055
O     6.185363     4.115483    -3.141068
H     6.395053     3.537606    -2.390708
H    -2.571448    -1.526506     7.586146
O    -2.058651    -0.733446     7.801097
H    -2.681794    -0.104451     8.175136
H    -9.033530     7.924507    -4.152407
O    -8.973822     7.336540    -4.906848
H    -8.017562     7.169996    -5.044367
H     3.498984    -9.004682     1.119442
O     2.826203    -8.365509     1.359293
H     3.304458    -7.562481     1.639470
H     3.596483     8.153073     1.786050
O     2.805251     7.591523     1.902781
H     2.361689     7.831639     2.729111
N     1.975542    -8.737794    -7.114125
H     2.647037    -8.350883    -6.522702
H     1.583340    -7.974258    -7.550468
