45
Coordinates from ORCA-job grain_mol_opt.QMRegion
  H   1.72723965442124     -4.67887759849104     -0.24463987644317
  O   1.84102211605014     -5.34771231703696      0.47401903042489
  H   1.29890174226834     -6.11425755976743      0.21043510310470
  H   -1.80218758044371     -4.51635442900789     -0.37930531155090
  O   -1.06391215757530     -5.11498465986839     -0.09565700211738
  H   -1.44497313156658     -5.60370443186368      0.63922011061526
  H   2.38709445240536     -6.42523761414002     -4.08158295447114
  O   2.03730026138353     -6.12917478660645     -3.22317434412327
  H   2.46666761163509     -6.72761986052144     -2.56666538807645
  H   -2.43715712314145     -8.37039044418762      0.83974181863918
  O   -2.04203558520189     -7.74220154079960      1.45680321865446
  H   -2.80217046774427     -7.25597567479518      1.80091735369177
  H   -0.08042734440299     -7.15388385560751     -1.15805649748716
  O   0.28768404990305     -7.53309141742030     -0.31658805420252
  H   -0.45697033502654     -7.48830914680809      0.30082989079506
  H   2.69088950747172     -8.16460536849574     -0.68067863469471
  O   3.04218119290240     -8.02558461319082     -1.57718978225047
  H   2.70693482398628     -8.75612548854563     -2.13885694791710
  H   -0.94157022985164     -7.14177065097653     -3.23666736245127
  O   -0.48059539750281     -6.48403080798741     -2.68275099358590
  H   0.43536867748662     -6.39437669021279     -3.07448676295982
  H   -3.37098266501771    -10.21484339921727     -1.29932310947714
  O   -2.96856445954947     -9.34035557011332     -1.29317165059804
  H   -3.70660065898285     -8.78399174585419     -0.91808002881610
  H   -0.06043003262814     -8.19705319127452      2.77836281482073
  O   0.77274871951270     -7.77939026577505      3.01074472590096
  H   1.44215014147535     -8.11538338318724      2.38569472815403
  H   -2.40348902004691     -5.87901792122657     -2.28853013633654
  O   -3.32263248700479     -5.70156211394906     -2.51421751788150
  H   -3.48826533798071     -6.04415661552784     -3.42373491289329
  H   0.11204611590797     -8.13646014268959     -5.47306688437324
  O   0.12754430171843     -9.11790943457226     -5.33936770648218
  H   0.37537634185129     -9.47568491687321     -6.19667938952437
  H   -2.46120080464331     -8.83992518861782     -3.03322560051511
  O   -2.05647298823417     -8.40194049569215     -3.80613989999844
  H   -1.53722394258188     -9.03971755593849     -4.31698749636463
  H   1.23232631224615    -10.16832301065393     -2.53144655031180
  O   1.86579481554911     -9.88305132363337     -3.22149900102103
  H   1.29686418946371     -9.58561225197549     -3.95557335775469
  H   3.66252918339507     -8.97112111460676      1.25720343838454
  O   2.98044868748373     -8.29295068404824      1.27107044634532
  H   3.45612933044042     -7.47991236826971      1.56728750106159
  O   0.22086516713996    -10.18665206740329     -0.98535086881123
  H   0.28475993888367     -9.23878584976595     -0.72194250097146
  H   -0.72690871792710    -10.31271495863288     -1.09074417860401
