24
Coordinates from ORCA-job grain_mol_opt.QMRegion
  H   2.19983089334496     -4.55851265462449     -6.71626891900284
  O   2.09959294243821     -5.01391890212951     -5.87017372248659
  H   1.83300311212045     -4.29464311159102     -5.23771219259281
  H   3.30989391642819     -2.48000714822427     -8.41281349803822
  O   3.22031476777609     -3.15272241428420     -7.70345617133883
  H   4.04302507815306     -3.04947733566925     -7.18591234576264
  H   5.21623749133862     -2.01770512353929     -5.57059735445947
  O   5.55078471640426     -2.77506794926825     -6.12214471913516
  H   5.29758887823615     -3.57636150006361     -5.60230595391737
  H   3.17165977782852     -0.90436748528246     -5.74257531671253
  O   2.27718748178429     -1.04318450768115     -6.10636226457872
  H   2.29644664061801     -1.88919337014187     -6.57848046751739
  H   4.79325722438408     -1.30697027181114     -9.32520018544128
  O   3.85378481195167     -1.18569835463079     -9.59663578453139
  H   3.78632709765706     -1.78711074018742    -10.35009028171095
  H   6.97745196942632     -1.04511472729266     -8.40012954960126
  O   6.37485981644874     -1.76307974205979     -8.64235977754165
  H   6.15721514983729     -2.15960547859984     -7.77753295005708
  H   4.53689181142352      0.21962686137310     -7.93561804297853
  O   4.77461607437407      0.24581969518525     -7.00427375714269
  H   4.64177258385861      1.19487512574195     -6.75211244729666
  O   4.72341084632523     -3.86533592429175    -10.33860827475450
  H   4.29605627984936     -4.13498382727421     -9.51337003529088
  H   5.59880915043997     -3.57434827315151    -10.05435464722996
