603

H     0.209546     3.030967    -0.710287
O     0.731162     2.359354    -1.200802
H     1.670715     2.489847    -0.931673
H    -0.054946    -1.293275     3.136847
O     0.335853    -0.594700     2.589491
H    -0.142147     0.219267     2.820644
H    -2.388812     2.411482    -0.556228
O    -2.175435     1.943527     0.268615
H    -2.193560     0.994913     0.046905
H    -4.644807     0.558581     2.175714
O    -4.961770    -0.374771     2.193788
H    -4.459960    -0.854934     1.526918
H     0.077731    -0.303155     0.933955
O    -0.122299    -0.070333     0.006700
H     0.215623     0.826177    -0.118640
H    -0.132216    -3.561012     3.772778
O    -0.409079    -2.729118     4.191094
H     0.239249    -2.556656     4.890325
H    -4.870829     2.539056     1.317327
O    -4.229292     2.131541     1.931379
H    -3.388489     2.111852     1.415503
H    -3.243991     3.892999    -2.235006
O    -2.506124     3.296279    -2.004134
H    -2.150357     3.005402    -2.863915
H    -0.113597    -3.801013     0.499140
O     0.227846    -2.982043     0.912941
H    -0.558586    -2.494295     1.225147
H    -2.359750    -1.526717     2.463892
O    -2.173127    -1.995882     1.624235
H    -2.434023    -1.411688     0.893216
H     2.079350    -1.446558    -1.141733
O     2.313597    -1.696123    -0.223929
H     1.525443    -2.122329     0.163739
H    -1.374898     1.833753     1.890184
O    -1.462113     1.439529     2.768293
H    -1.446130     2.154596     3.430283
H     0.213329    -2.707489    -1.579938
O    -0.542413    -2.095979    -1.634013
H    -0.360771    -1.367205    -1.003574
H    -3.428483    -2.923986    -0.388328
O    -2.712425    -3.417996    -0.808912
H    -2.003036    -2.788308    -1.032393
H     2.792405     0.141137     2.904829
O     2.895779    -0.036879     3.866844
H     2.987745     0.858166     4.266038
H    -3.518511     6.381530    -0.575084
O    -3.282064     7.041209    -1.278459
H    -3.138582     7.888191    -0.811886
H     3.916059     0.580383     1.153286
O     2.964760     0.404920     1.270167
H     2.723782    -0.349719     0.695015
H    -5.776002     0.840493    -1.608433
O    -4.865067     1.167865    -1.485980
H    -4.974288     1.998368    -0.977360
H    -1.193197     5.408238     2.175076
O    -1.817774     4.660181     2.062540
H    -1.894199     4.245051     2.926821
H     3.465791     2.715768     0.408192
O     3.255180     2.713747    -0.539714
H     3.584256     1.876159    -0.906507
H     1.492896    -4.703931    -2.257306
O     1.559854    -3.924680    -1.687156
H     2.353438    -3.465203    -2.042819
H    -0.920274    -0.092739    -2.564544
O    -0.286529     0.558079    -2.892753
H    -0.024229     1.143364    -2.158970
H     1.707838    -4.685072    -0.186773
O     1.816983    -5.319250     0.558047
H     1.352395    -6.131420     0.266589
H    -1.226707    -3.274291    -2.883117
O    -1.055483    -3.960248    -3.541785
H    -0.927812    -4.805428    -3.070036
H    -2.754207     3.329165     4.681714
O    -1.772996     3.325909     4.644859
H    -1.477962     2.927034     5.481652
H     0.985473     5.050517     4.035993
O     0.039852     5.283582     4.089452
H    -0.432397     4.481919     4.351347
H    -1.722477    -4.649737    -0.367781
O    -0.956504    -5.189569    -0.083191
H    -1.302450    -5.874346     0.498498
H    -3.914305     5.825853    -2.626695
O    -4.266499     4.990537    -2.951938
H    -4.114946     4.951988    -3.920523
H    -2.414989    -3.679604     1.938390
O    -2.432349    -4.582302     2.317864
H    -1.492206    -4.820205     2.456021
H    -4.695696    -2.987272    -2.891544
O    -3.844759    -3.221898    -3.299804
H    -3.512424    -4.013852    -2.832716
H     0.364902     1.395798     4.589008
O     0.870875     2.154411     4.251722
H     0.920651     2.816327     4.955597
H    -4.651513    -5.172606    -1.555754
O    -5.351306    -4.816852    -0.980966
H    -5.135329    -5.168038    -0.096233
H     2.321433    -6.495532    -4.042633
O     1.987449    -6.163645    -3.189120
H     2.423994    -6.735175    -2.525315
H     0.462658    -3.392211    -4.014174
O     1.264263    -3.027097    -4.440947
H     0.942392    -2.658444    -5.289829
H     1.982995    -1.740690     2.962260
O     2.137911    -2.672317     2.748001
H     1.449704    -2.888695     2.084207
H    -3.016142    -1.818179    -3.212345
O    -2.593595    -0.931577    -3.151777
H    -3.249873    -0.286961    -3.471991
H    -3.175538     4.982697     1.052045
O    -3.958876     5.354441     0.599108
H    -4.371245     5.915344     1.304481
H     0.894450     2.264063     2.562168
O     0.992218     2.254114     1.590668
H     1.716450     1.627646     1.428077
H     0.206301     5.654071    -0.803830
O     0.728010     6.314503    -1.313408
H     0.862619     7.117188    -0.758565
H     0.366487     7.049228     2.544559
O     0.000146     6.665179     1.730441
H     0.660283     5.990832     1.468989
H    -2.458949     0.230408     3.329078
O    -2.679075    -0.581761     3.837775
H    -1.916481    -0.619188     4.456961
H    -0.863764     0.578335     6.006851
O    -0.591995     0.056549     5.233196
H     0.121871    -0.546516     5.519589
H     0.725070    -4.985414     1.976852
O     0.185828    -5.091606     2.783811
H     0.330938    -6.011323     3.058731
H    -2.109370    -8.084042     0.465789
O    -1.784194    -7.593271     1.248109
H    -2.568909    -7.280156     1.705606
H    -0.371932     6.856724    -2.368033
O    -1.120462     7.275086    -2.865690
H    -1.908747     7.151580    -2.299167
H    -1.100353     4.314845     0.541066
O    -0.729977     4.371369    -0.356316
H    -1.438979     4.127975    -0.985399
H    -4.387045     2.763730     3.492077
O    -4.381864     2.937616     4.456051
H    -4.464405     2.056156     4.868700
H     2.047295    -3.565526     4.231139
O     1.986488    -4.034470     5.086401
H     2.495531    -3.495533     5.713360
H     4.699963    -3.191316     0.815499
O     4.536327    -3.118860    -0.150615
H     3.677016    -2.642196    -0.233019
H    -2.717674    -0.750419    -1.359311
O    -3.041943    -0.477135    -0.484698
H    -3.843073     0.048059    -0.690914
H    -1.622486    -0.775316    -4.642549
O    -1.118318    -0.562816    -5.449068
H    -0.407378     0.034797    -5.168874
H     1.793534    -1.725980    -3.396143
O     1.887811    -0.977007    -2.775864
H     1.110022    -0.400327    -2.906952
H     3.680726    -3.112337     2.530313
O     4.639608    -3.341394     2.455325
H     4.694589    -4.301210     2.584790
H     3.445035    -6.109131     3.114708
O     3.797764    -5.911301     2.212707
H     3.058327    -5.568039     1.670886
H    -3.347580     1.598638    -4.192023
O    -4.192010     1.128889    -3.996730
H    -4.406248     1.278325    -3.039951
H    -5.071535     4.151527     0.048613
O    -5.510630     3.285083    -0.049472
H    -6.441884     3.403389    -0.328893
H     6.738632    -1.184936    -1.400675
O     5.968027    -1.034529    -0.846681
H     5.550492    -1.902106    -0.645389
H     4.594552    -3.178147    -2.494009
O     3.725093    -3.008189    -2.907211
H     3.725561    -3.629501    -3.661312
H     4.463537    -2.272664     5.595021
O     4.123893    -2.734290     6.391769
H     4.457238    -3.640150     6.312230
H    -0.725311     6.359504     5.034167
O    -1.319304     6.937525     5.572706
H    -1.334021     7.813050     5.127537
H     4.702927    -0.139565    -1.501670
O     3.933768     0.401509    -1.762131
H     3.241156    -0.200633    -2.089353
H    -0.744950     4.510878    -4.071326
O    -1.528375     5.053380    -4.278227
H    -1.374387     5.921622    -3.859775
H     0.660185     3.195270    -2.692352
O     0.666144     3.569394    -3.601505
H     0.712269     2.804617    -4.185251
H    -5.369448    -5.183080     1.812272
O    -4.674173    -5.779452     1.456987
H    -3.832604    -5.362799     1.723134
H     7.876533    -1.705862    -4.073778
O     7.621553    -1.389282    -3.174457
H     7.134926    -0.545452    -3.332622
H     3.690883    -5.091803    -5.303569
O     4.455025    -4.716885    -4.826344
H     4.841188    -5.426132    -4.279474
H    -3.758030     0.039871     4.927996
O    -4.356039     0.506554     5.561241
H    -5.015710    -0.150048     5.857645
H     3.470149    -5.943950    -0.529071
O     4.342091    -5.698479    -0.850347
H     4.419200    -4.735609    -0.711103
H     4.996703    -0.351351    -4.196175
O     4.458931    -1.063639    -4.581056
H     4.135544    -1.644297    -3.859933
H    -1.175874     1.559585    -3.958387
O    -1.827736     2.178875    -4.343596
H    -1.473285     2.507439    -5.192476
H     4.884404    -6.331183    -2.327879
O     5.214003    -6.659558    -3.193442
H     6.032602    -7.139916    -3.007902
H     8.737833    -5.104274    -2.949336
O     8.048488    -5.519941    -2.386929
H     8.082710    -6.477598    -2.485816
H     2.338605     4.719771     0.403283
O     1.767117     4.703902     1.180242
H     1.410415     3.784295     1.264819
H    -4.392424    -2.615097     4.236884
O    -5.286965    -2.275943     4.036485
H    -5.151873    -1.497133     3.457369
H    -5.833334    -3.186698     1.329973
O    -6.293854    -3.741119     2.002077
H    -6.102453    -3.302446     2.850292
H     1.719607     3.494316     6.824874
O     1.097127     4.010198     6.290928
H     0.315081     4.165819     6.863483
H     5.022057    -2.155846     3.587514
O     5.045336    -1.434277     4.248156
H     4.232752    -0.878668     4.092101
H     2.414616    -5.557928     4.831546
O     2.793691    -6.442706     4.573682
H     2.047990    -7.024708     4.404047
H     2.241401    -4.540940    -6.800794
O     2.074834    -5.026140    -5.982723
H     1.812634    -4.332334    -5.329077
H     6.446153    -4.105974    -0.530717
O     7.200519    -4.507615    -0.068043
H     7.705348    -4.933378    -0.788839
H    -1.687497     4.521388     7.670502
O    -0.786789     4.621019     8.051467
H    -0.606444     5.580443     8.072203
H    -5.126859     5.676347    -5.619743
O    -4.519661     4.912501    -5.639227
H    -3.764219     5.124622    -6.208525
H     3.260309    -2.559139    -8.458387
O     3.175353    -3.088583    -7.654628
H     4.053499    -3.062738    -7.228993
H    -0.653570     8.820567    -2.328368
O    -0.530630     9.651531    -1.813594
H     0.229110     9.479418    -1.233131
H     2.093568    -0.891146     5.188114
O     1.523196    -1.415128     5.779546
H     1.619470    -1.066383     6.675149
H     5.194248    -2.045798    -5.723443
O     5.538278    -2.814363    -6.243439
H     5.266110    -3.602136    -5.721799
H     5.719082    -5.197536     4.666135
O     5.199788    -5.108756     5.494311
H     4.478057    -5.741218     5.414103
H    -3.940449     1.176238     6.996929
O    -3.745047     1.655277     7.838192
H    -4.620142     2.042290     8.100564
H    -1.841925     9.614995    -0.795670
O    -2.700837     9.490024    -0.317918
H    -3.313141     10.117463    -0.705640
H    -5.947917     4.682692    -2.955529
O    -6.857905     4.562374    -3.295857
H    -6.770036     3.857452    -3.970624
H     0.097369    -7.067238    -1.136317
O     0.564109    -7.500224    -0.388446
H    -0.112960    -7.692567     0.263359
H    -7.634009     3.788590    -1.981156
O    -7.892898     3.204547    -1.237859
H    -7.751433     2.294522    -1.574459
H     4.005108    -0.866199     6.956728
O     4.015645     0.098000     6.943558
H     4.826885     0.384048     6.508116
H     2.292973     5.822385    -1.214733
O     3.224763     5.522652    -1.093549
H     3.399955     4.978599    -1.883654
H     6.560073    -5.928043     0.651873
O     6.193256    -6.661928     1.190184
H     5.289446    -6.383813     1.418638
H    -3.830630     4.762641     7.756600
O    -3.265980     4.296917     7.097917
H    -3.460114     3.354109     7.212198
H     5.769254    -7.945779     0.128715
O     5.478803    -8.635426    -0.504823
H     4.648466    -8.311103    -0.897616
H    -0.521436     2.073360     7.668191
O    -1.156956     2.006354     6.935396
H    -2.024298     1.866660     7.335221
H    -6.370621    -0.112812     1.065860
O    -6.693670    -0.199989     0.154348
H    -7.612489    -0.470218     0.176225
H    -5.366133    -3.062175    -0.577094
O    -5.111590    -2.357575     0.045050
H    -5.682081    -1.585297    -0.143715
H     4.197321     5.539427     0.299043
O     4.530431     5.602711     1.213706
H     3.879782     6.209036     1.639848
H    -9.043682    -1.747956    -2.234238
O    -8.492981    -1.543694    -1.450896
H    -8.618237    -2.277879    -0.810007
H    -5.534067     3.453992    -5.541070
O    -6.050087     2.745016    -5.121775
H    -5.382175     2.161022    -4.708158
H     3.169174    -0.909172    -5.682999
O     2.311328    -1.031551    -6.144514
H     2.395417    -1.882147    -6.615355
H     8.101577    -1.373790    -6.071731
O     8.111242    -2.236032    -5.611813
H     7.254264    -2.636841    -5.858149
H     7.607422     0.964628    -6.359883
O     7.416875     0.114811    -6.769489
H     6.435414     0.065181    -6.801910
H    -7.849879    -3.684005     0.952460
O    -8.530642    -3.579494     0.270072
H    -8.434817    -4.341264    -0.329035
H    -2.390995     8.745261     1.248221
O    -2.237959     8.159025     2.002635
H    -1.468045     7.605854     1.779103
H    -4.420614     6.453385     3.468063
O    -4.593846     6.875828     2.610465
H    -3.830877     7.461188     2.465679
H     3.400021     3.436922    -3.603117
O     3.250711     4.405988    -3.504392
H     2.286454     4.475963    -3.611240
H    -6.119791    -1.614406    -3.433750
O    -6.200072    -2.190532    -2.647169
H    -6.982215    -1.881064    -2.137064
H     6.494641     1.071648     4.689035
O     6.105692     1.619817     5.387853
H     6.297510     2.534658     5.089828
H     1.349848     1.701005    -5.853550
O     1.157819     1.107909    -5.096404
H     1.520527     0.243927    -5.364183
H    -2.442501     3.007362     10.461833
O    -2.231032     2.098855     10.190921
H    -2.831828     1.896360     9.461836
H     7.646554    -0.486342     3.039236
O     6.897668     0.090235     3.210285
H     6.206301    -0.509546     3.592982
H    -5.655831    -8.052668    -0.668908
O    -4.918633    -8.119074    -0.024909
H    -4.920342    -7.299748     0.493867
H    -5.185748    -0.132820    -4.715878
O    -5.803890    -0.845403    -4.950519
H    -6.642592    -0.404235    -5.147428
H     1.871561    -0.226642    -7.540336
O     1.666863     0.241603    -8.385456
H     2.241435    -0.166088    -9.038882
H     4.846961    -1.429510    -9.335223
O     3.920793    -1.201998    -9.615236
H     3.897563    -1.323328    -10.563768
H     7.586097    -2.556002     4.164323
O     7.728921    -2.594471     3.204333
H     7.235518    -3.386814     2.936820
H     6.736677    -5.884764     2.664252
O     6.801369    -5.206831     3.362583
H     7.678684    -5.291021     3.777522
H    -1.796116     8.964631     3.448999
O    -1.545633     9.271544     4.345793
H    -2.392866     9.407658     4.802877
H    -7.399786     1.552463    -5.249877
O    -7.973887     0.809442    -4.999742
H    -8.875248     1.209607    -4.922240
H     6.904055    -1.115933    -8.444200
O     6.321243    -1.838097    -8.702945
H     6.096266    -2.284541    -7.868395
H    -1.690804     6.216564    -7.060560
O    -2.088447     5.392846    -6.781982
H    -1.836267     5.265848    -5.818781
H     0.041955     3.349252     8.990685
O     0.240525     2.430631     9.248937
H    -0.556107     2.168370     9.759166
H     6.754185    -2.789863    -2.737151
O     6.224996    -3.532845    -2.391212
H     6.692252    -4.344611    -2.636971
H    -4.087842    -3.088318    -4.936266
O    -4.245382    -2.979517    -5.900953
H    -4.792703    -2.186588    -5.958369
H     2.018702     2.219028     8.430271
O     2.680970     2.327872     7.737988
H     3.101294     1.456441     7.624872
H    -6.906188    -5.201833    -1.369729
O    -7.822685    -5.472103    -1.610932
H    -7.959342    -5.072993    -2.495000
H    -3.796545     5.282780     5.671086
O    -3.765609     6.048612     5.076925
H    -2.831391     6.343600     5.166550
H    -7.883617     0.085899    -1.957862
O    -7.395006     0.807652    -2.375944
H    -7.626657     0.793031    -3.328345
H     5.847857     0.132293     0.369689
O     5.628517     0.853522     0.992136
H     6.143505     0.659075     1.802347
H    -6.179266     3.345709     7.386236
O    -6.048502     2.830625     8.216421
H    -6.649485     2.069277     8.133313
H     2.280323    -8.075698    -0.838229
O     2.955108    -8.066083    -1.536659
H     2.727891    -8.782428    -2.146274
H    -2.759882    -3.982529    -6.190832
O    -2.005726    -4.548258    -5.959449
H    -1.726022    -4.253124    -5.064528
H    -5.615116     3.787721     5.295278
O    -6.261578     4.186752     5.913605
H    -6.098471     5.130795     5.895223
H    -1.023925    -7.124032    -3.150369
O    -0.549320    -6.452443    -2.626401
H     0.356745    -6.384775    -3.010973
H     4.471171     2.036050     5.088201
O     3.530310     2.279060     4.971656
H     3.147435     2.293913     5.854072
H     4.034437     4.736177     6.251426
O     4.179097     5.427450     5.593114
H     3.580791     5.158898     4.848436
H     2.785456     3.633833     3.878143
O     2.607101     4.574179     3.713460
H     2.481593     4.672626     2.747653
H     9.397630     0.209071    -1.123534
O     8.592799     0.370689    -0.627663
H     8.420811    -0.447573    -0.132321
H    -2.053091     5.367000     10.618380
O    -2.774138     4.739302     10.854849
H    -2.989799     4.920754     11.769834
H     7.981489    -3.009575     0.291873
O     8.403713    -2.162088     0.542608
H     8.341397    -2.153721     1.505083
H     5.514623     3.621456     3.515736
O     6.168046     3.977766     4.144125
H     5.638157     4.573214     4.702397
H    -4.164326     5.066401     9.761106
O    -4.799661     5.214663     9.040541
H    -5.412066     4.466489     9.043297
H    -7.016230    -3.486351    -3.465479
O    -7.638547    -4.099857    -3.909087
H    -7.120210    -4.544898    -4.611421
H     0.076468     6.175527     10.727522
O    -0.789070     6.505694     10.482021
H    -0.676645     6.933069     9.613697
H     2.582992     1.482758    -4.139377
O     3.461315     1.837863    -3.904104
H     3.786646     1.323350    -3.135797
H    -6.938743    -0.183486     7.226546
O    -7.445858     0.596457     7.505517
H    -8.071693     0.777133     6.803063
H    -2.741078    -9.872933    -0.799444
O    -2.678109    -8.931950    -0.963214
H    -3.583056    -8.564173    -0.720873
H    -10.076667     3.063673    -4.893195
O    -10.193129     2.147392    -4.608356
H    -10.405357     2.235389    -3.658183
H    -2.044135    -3.002091     4.614630
O    -2.918868    -3.441616     4.689412
H    -2.915886    -4.062396     3.935516
H    -0.163755    -7.969847     2.499256
O     0.664293    -7.757751     2.943289
H     1.380361    -8.056370     2.355149
H     6.735143    -2.351002     6.360110
O     7.183411    -3.061833     5.897103
H     6.553667    -3.797137     5.863331
H    -5.239858    -1.969858     6.951880
O    -5.917694    -1.473440     6.468409
H    -5.905022    -1.854122     5.560690
H     0.819257     3.006456    -7.148866
O     1.736437     2.674822    -7.206885
H     1.720205     1.924891    -7.829714
H    -3.919867     8.788662     6.632888
O    -3.921258     8.782457     5.675550
H    -4.047615     7.853940     5.411983
H    -2.057031     10.307257    -2.790202
O    -2.959847     10.487347    -3.089528
H    -2.890809     11.118778    -3.804921
H     9.432251    -4.046466     4.007478
O     9.154327    -4.721582     4.634104
H     8.727890    -4.245912     5.357852
H    -0.749800    -6.017596    -5.832721
O    -0.045352    -6.582945    -5.499287
H     0.789531    -6.122739    -5.722098
H     1.811195     8.267375     0.637121
O     1.508017     8.586611    -0.239198
H     2.328080     8.644245    -0.761397
H     3.482996     2.903724    -6.705683
O     4.312090     2.614605    -6.298687
H     4.071029     2.348411    -5.386481
H     3.764986     7.141927    -1.216527
O     3.925139     8.075298    -1.464200
H     4.215569     7.985716    -2.386691
H     4.375054    -0.037482    -7.946769
O     4.754680     0.110980    -7.078836
H     4.574913     1.044141    -6.838011
H     6.037151     1.935043    -0.523325
O     6.598236     2.124925    -1.288659
H     7.424646     1.648058    -1.096591
H     6.683252    -8.438364    -1.615860
O     7.316503    -8.230912    -2.355597
H     7.681525    -9.066480    -2.641792
H    -5.314942    -5.804722    -5.383797
O    -5.933028    -5.133734    -5.698921
H    -5.382455    -4.366751    -5.940954
H     0.720551     7.208264     7.550921
O    -0.179546     7.236419     7.913421
H    -0.737975     7.248650     7.097640
H    -8.905208    -2.843131    -4.077279
O    -9.424627    -2.033684    -3.911117
H    -9.140756    -1.371567    -4.545139
H    -2.411799    -5.992829    -2.129596
O    -3.290851    -5.707249    -2.395990
H    -3.481531    -6.085318    -3.279578
H    -3.000396    -5.917172    -5.393601
O    -3.598699    -6.524800    -4.916567
H    -3.116524    -7.344638    -4.748552
H    -1.406926     3.702201    -7.011800
O    -0.866261     2.947214    -6.739530
H    -1.105164     2.159955    -7.285476
H    -0.225456     0.387650    -8.235802
O    -1.120471     0.624135    -7.950174
H    -1.292800     0.103981    -7.149398
H    -10.422915     4.050147    -2.731591
O    -10.488592     3.273874    -2.159976
H    -9.657291     3.249208    -1.654174
H     4.525666     3.924698     1.673448
O     4.353100     3.013430     1.992726
H     5.031075     2.429350     1.626605
H     6.478780     1.380525    -4.268425
O     6.178046     0.760536    -3.569240
H     6.212952     1.261721    -2.729071
H     9.636790    -2.231565    -0.974747
O     9.910117    -2.021386    -1.876477
H     9.108691    -1.682810    -2.318106
H     9.964744    -3.335209    -3.140571
O     9.694955    -3.989831    -3.811934
H     9.298969    -3.484825    -4.532794
H    -7.699724    -8.574707    -1.622461
O    -6.962132    -7.981120    -1.755632
H    -7.339469    -7.067934    -1.748206
H     4.136711     6.092383    -3.830237
O     4.779982     6.810185    -3.751024
H     5.629498     6.380300    -3.619967
H     0.083802    -8.188314    -5.201863
O     0.107744    -9.170698    -5.066080
H     0.254872    -9.538070    -5.937705
H    -2.337680    -8.680371    -2.691289
O    -2.107204    -8.420216    -3.602730
H    -1.462179    -9.040312    -3.961548
H     2.174853    -10.828386    -3.479153
O     2.129025    -9.873752    -3.458141
H     1.341927    -9.604722    -3.982752
H     6.829830     3.307966    -4.633421
O     6.884578     2.626000    -5.331486
H     6.090133     2.759676    -5.870456
H    -3.529747    -3.686399     7.730042
O    -3.644985    -2.900501     7.197376
H    -3.397589    -3.143449     6.279025
H    -0.655544    -3.385854    -6.727477
O    -0.024872    -2.654885    -6.739972
H    -0.505005    -1.877668    -6.400030
H     0.681569     0.499613     8.729948
O     0.686967    -0.217201     8.091626
H    -0.235575    -0.506660     8.008669
H    -5.838531     7.357300    -4.278772
O    -6.343855     6.736360    -4.835383
H    -6.628849     6.007997    -4.240139
H    -4.278970     9.095750    -3.303474
O    -4.814533     8.300221    -3.191804
H    -4.403127     7.823637    -2.452655
H    -9.718156     5.786292    -4.652584
O    -10.251173     4.982434    -4.483869
H    -11.132826     5.182308    -4.800393
H     2.802989     6.544274     6.084348
O     1.844178     6.638546     6.186924
H     1.499442     5.724995     6.089434
H     4.734084     8.920295     0.110012
O     4.881675     9.146373     1.046070
H     5.657148     8.607901     1.295066
H     4.132387    -7.441977    -4.346821
O     3.372145    -7.728685    -4.885052
H     3.093095    -8.568067    -4.504512
H     0.411319     8.682519     4.171193
O     1.084098     8.031857     3.945810
H     1.310036     7.546164     4.764066
H     5.236468     4.199638    -3.225250
O     6.197419     4.153631    -3.176038
H     6.401925     3.579988    -2.421517
H    -2.542216    -1.509339     7.570025
O    -2.030867    -0.715319     7.784918
H    -2.655243    -0.087510     8.158936
H    -9.031757     7.928126    -4.164403
O    -8.971660     7.340118    -4.918783
H    -8.015106     7.175360    -5.056941
H     3.539305    -8.973604     1.094370
O     2.863909    -8.340718     1.343869
H     3.339877    -7.534419     1.618507
H     3.542585     8.339507     1.781046
O     2.826253     7.669393     1.923861
H     2.321863     7.905072     2.723094
N     6.811911     7.141421     1.592985
H     7.137694     6.906312     2.467257
H     6.102179     6.489731     1.419912
