12
Coordinates from ORCA-job grain_mol_opt.QMRegion
  H   3.21312427314337     -2.51624745775038     -8.41362635519471
  O   3.13516196562142     -3.01783143141226     -7.58399420814957
  H   4.02043154183471     -2.96795439324431     -7.17972539046566
  H   4.73421370786684     -1.23593130266122     -9.30069490935000
  O   3.81588455691231     -1.16627932288573     -9.63513301275900
  H   3.89081151739194     -1.57111347028410    -10.50642749147015
  H   6.96601087686245     -1.04778016459788     -8.32856653687319
  O   6.36772700922939     -1.75359443726091     -8.61232913556850
  H   6.11236605175938     -2.18249917957939     -7.77294279111881
  O   5.46231469529794     -3.02295864528979    -11.07630123969342
  H   6.06145995007451     -2.78683967031631    -10.35143354390465
  H   6.03742201042804     -3.25529515030248    -11.80973545884773
