603

H     0.197758     3.029943    -0.664513
O     0.721450     2.360965    -1.155978
H     1.659576     2.489392    -0.880730
H    -0.099627    -1.245091     3.086503
O     0.377977    -0.551907     2.601012
H    -0.084866     0.271217     2.842099
H    -2.401906     2.411468    -0.525114
O    -2.191456     1.942423     0.299697
H    -2.210328     0.993915     0.076912
H    -4.670592     0.557186     2.190608
O    -4.990396    -0.374665     2.202432
H    -4.482842    -0.857093     1.541749
H     0.058928    -0.306708     0.973801
O    -0.138474    -0.072822     0.045334
H     0.199541     0.823918    -0.077016
H    -0.289147    -3.545061     3.716621
O    -0.668521    -2.743432     4.114490
H    -0.415591    -2.800114     5.065262
H    -4.892416     2.537692     1.336626
O    -4.253078     2.131070     1.953248
H    -3.410319     2.109929     1.441023
H    -3.248353     3.896778    -2.204766
O    -2.510954     3.300368    -1.971771
H    -2.151919     3.010183    -2.830377
H    -0.132178    -3.800858     0.531767
O     0.209672    -2.986543     0.954625
H    -0.579492    -2.497635     1.259280
H    -2.385771    -1.533888     2.487525
O    -2.199595    -2.000015     1.646284
H    -2.456185    -1.412699     0.916820
H     2.066335    -1.448294    -1.092652
O     2.297601    -1.700590    -0.174854
H     1.506914    -2.125782     0.210456
H    -1.400243     1.829620     1.924930
O    -1.488447     1.434333     2.802300
H    -1.479210     2.148318     3.465396
H     0.203065    -2.706264    -1.544590
O    -0.551163    -2.093479    -1.602434
H    -0.373244    -1.366644    -0.968523
H    -3.443939    -2.925317    -0.371399
O    -2.726722    -3.416936    -0.793031
H    -2.016110    -2.786215    -1.008584
H     2.759518     0.130208     2.951694
O     2.872208    -0.042902     3.913713
H     2.956614     0.853089     4.313104
H    -3.529943     6.382161    -0.541134
O    -3.289677     7.043519    -1.242001
H    -3.148413     7.889230    -0.772751
H     3.894235     0.582849     1.208844
O     2.943619     0.402471     1.324200
H     2.704868    -0.351202     0.747125
H    -5.784461     0.844055    -1.595780
O    -4.874043     1.171710    -1.470117
H    -4.985283     2.000779    -0.959700
H    -1.217997     5.402142     2.218167
O    -1.842770     4.655018     2.101411
H    -1.923545     4.238021     2.964472
H     3.487941     2.760556     0.445212
O     3.243031     2.717218    -0.494500
H     3.574324     1.873338    -0.843079
H     1.484452    -4.702076    -2.220561
O     1.550103    -3.924456    -1.648143
H     2.344580    -3.463956    -1.999887
H    -0.924111    -0.088863    -2.530841
O    -0.288508     0.562348    -2.854840
H    -0.029589     1.145891    -2.118388
H     1.689807    -4.687337    -0.147757
O     1.797303    -5.324097     0.595117
H     1.330864    -6.134070     0.300338
H    -1.231506    -3.269894    -2.857251
O    -1.055716    -3.954390    -3.516317
H    -0.932281    -4.800562    -3.045253
H    -2.791819     3.318019     4.713588
O    -1.810238     3.315865     4.682391
H    -1.520555     2.911479     5.518945
H     0.952162     5.040808     4.087578
O     0.006430     5.274026     4.138080
H    -0.467581     4.471955     4.396278
H    -1.737939    -4.648838    -0.347115
O    -0.973531    -5.190955    -0.062092
H    -1.324368    -5.874194     0.518575
H    -3.915694     5.831011    -2.595804
O    -4.266481     4.996584    -2.924638
H    -4.110273     4.959876    -3.892524
H    -2.442184    -3.687389     1.956509
O    -2.458217    -4.600938     2.309149
H    -1.521711    -4.827627     2.476629
H    -4.699533    -2.980688    -2.882150
O    -3.846881    -3.215143    -3.287087
H    -3.517322    -4.007748    -2.819029
H     0.324265     1.382098     4.632869
O     0.836163     2.139648     4.300807
H     0.877722     2.803438     5.003436
H    -4.663208    -5.169173    -1.549918
O    -5.365997    -4.814134    -0.978591
H    -5.154813    -5.166523    -0.092870
H     2.321717    -6.490494    -4.006049
O     1.984538    -6.159744    -3.153421
H     2.416569    -6.733275    -2.488611
H     0.464132    -3.386325    -3.979761
O     1.267955    -3.021051    -4.402574
H     0.949628    -2.650611    -5.252017
H     1.997932    -1.759031     2.970278
O     2.092253    -2.716670     2.839748
H     1.479289    -2.906364     2.098844
H    -3.017955    -1.812307    -3.192533
O    -2.594740    -0.926053    -3.129701
H    -3.249838    -0.280507    -3.450279
H    -3.195281     4.979984     1.084944
O    -3.975479     5.354044     0.628457
H    -4.391692     5.912835     1.333204
H     0.867024     2.257522     2.607597
O     0.970913     2.252951     1.636793
H     1.695495     1.626581     1.474266
H     0.188806     5.655542    -0.749285
O     0.712240     6.316150    -1.258111
H     0.853375     7.116893    -0.703587
H     0.337768     7.040729     2.597848
O    -0.023161     6.659145     1.780507
H     0.640515     5.987394     1.521329
H    -2.476351     0.291185     3.336494
O    -2.731803    -0.530437     3.817124
H    -1.973495    -0.588664     4.436119
H    -0.892700     0.653206     6.026390
O    -0.614701     0.106047     5.265211
H     0.177731    -0.401817     5.571920
H     0.674673    -5.090618     1.933734
O     0.165579    -5.151703     2.768154
H     0.266814    -6.086670     3.024756
H    -2.132338    -8.085508     0.478669
O    -1.808878    -7.597814     1.263520
H    -2.594852    -7.283332     1.718057
H    -0.377617     6.860299    -2.319161
O    -1.122962     7.280130    -2.819986
H    -1.913919     7.155119    -2.257328
H    -1.117991     4.311654     0.583341
O    -0.743450     4.371308    -0.312180
H    -1.449232     4.128413    -0.945264
H    -4.419533     2.756534     3.515551
O    -4.418424     2.928469     4.479780
H    -4.503483     2.045755     4.890031
H     1.937574    -3.579218     4.448238
O     2.051118    -4.058551     5.296192
H     2.736137    -3.525003     5.761559
H     4.675084    -3.196238     0.871408
O     4.518193    -3.122715    -0.095280
H     3.659276    -2.645190    -0.182593
H    -2.728075    -0.748177    -1.336548
O    -3.055488    -0.474905    -0.463293
H    -3.856644     0.049181    -0.671516
H    -1.617456    -0.767501    -4.614041
O    -1.108488    -0.553476    -5.417370
H    -0.399075     0.043133    -5.131616
H     1.791830    -1.722082    -3.352078
O     1.884329    -0.974527    -2.729888
H     1.107246    -0.397237    -2.862722
H     3.635566    -3.128380     2.596465
O     4.596354    -3.349099     2.513255
H     4.660207    -4.309169     2.636756
H     3.405849    -6.111309     3.158386
O     3.765840    -5.920562     2.259880
H     3.030905    -5.575856     1.711369
H    -3.343333     1.606839    -4.166547
O    -4.188874     1.137291    -3.976655
H    -4.407949     1.284259    -3.020368
H    -5.086657     4.152364     0.070056
O    -5.525267     3.286403    -0.032835
H    -6.455480     3.405294    -0.315308
H     6.727982    -1.190153    -1.333054
O     5.956314    -1.039331    -0.780711
H     5.535503    -1.906207    -0.583713
H     4.588581    -3.177331    -2.439750
O     3.721413    -3.005976    -2.856862
H     3.724690    -3.625894    -3.612090
H     4.563122    -2.307826     5.622800
O     4.252511    -2.813074     6.414248
H     4.621084    -3.706111     6.266886
H    -0.763836     6.347556     5.081838
O    -1.360078     6.924989     5.618525
H    -1.372979     7.801081     5.175132
H     4.693440    -0.143511    -1.440772
O     3.926938     0.399101    -1.705046
H     3.234110    -0.201185    -2.035392
H    -0.739989     4.517211    -4.027457
O    -1.521761     5.060616    -4.237950
H    -1.370561     5.927819    -3.816513
H     0.658859     3.198755    -2.644061
O     0.668428     3.573969    -3.553245
H     0.715248     2.809346    -4.137257
H    -5.398682    -5.184562     1.814424
O    -4.703988    -5.782135     1.459118
H    -3.861545    -5.367403     1.725176
H     7.878612    -1.704541    -4.000800
O     7.619800    -1.389463    -3.101950
H     7.133957    -0.545362    -3.260968
H     3.697347    -5.084308    -5.257355
O     4.459838    -4.711252    -4.775806
H     4.842472    -5.421952    -4.228513
H    -3.796340     0.029856     4.950568
O    -4.399461     0.496290     5.579511
H    -5.056871    -0.163474     5.873819
H     3.452279    -5.946258    -0.487375
O     4.327723    -5.701284    -0.799716
H     4.403142    -4.738249    -0.660765
H     4.998962    -0.347529    -4.134116
O     4.464095    -1.059484    -4.523439
H     4.135890    -1.640942    -3.805046
H    -1.172573     1.565833    -3.922412
O    -1.821614     2.186690    -4.310019
H    -1.462782     2.516256    -5.156534
H     4.876204    -6.330729    -2.277459
O     5.210049    -6.657184    -3.142084
H     6.027308    -7.138682    -2.953837
H     8.733132    -5.104712    -2.877847
O     8.041311    -5.520944    -2.318941
H     8.074742    -6.478396    -2.420265
H     2.333973     4.718995     0.464940
O     1.754911     4.702706     1.236277
H     1.395774     3.782943     1.314586
H    -4.456980    -2.632393     4.238895
O    -5.348146    -2.270820     4.038791
H    -5.194140    -1.494484     3.463848
H    -5.857658    -3.188509     1.334706
O    -6.321597    -3.744072     2.002757
H    -6.135518    -3.304059     2.852956
H     1.670836     3.482667     6.877348
O     1.049255     3.996081     6.341160
H     0.264944     4.150960     6.911170
H     4.984268    -2.168035     3.646853
O     5.004897    -1.451269     4.313048
H     4.196830    -0.889419     4.148990
H     2.366008    -5.671149     4.886828
O     2.758831    -6.537874     4.616953
H     2.033712    -7.123086     4.375179
H     2.255387    -4.530584    -6.760389
O     2.085634    -5.017087    -5.943781
H     1.819676    -4.324435    -5.290252
H     6.429957    -4.109866    -0.468867
O     7.181628    -4.512872    -0.002801
H     7.690058    -4.937117    -0.722076
H    -1.739676     4.503345     7.710369
O    -0.840385     4.602001     8.095934
H    -0.660236     5.561314     8.119345
H    -5.113528     5.687917    -5.595265
O    -4.506250     4.924097    -5.613310
H    -3.748219     5.136869    -6.178800
H     3.283608    -2.545795    -8.409214
O     3.194616    -3.076834    -7.606974
H     4.070632    -3.052429    -7.177070
H    -0.657405     8.823484    -2.276751
O    -0.534210     9.653022    -1.759580
H     0.226990     9.479082    -1.181333
H     2.122159    -0.667233     5.258636
O     1.599093    -1.105854     5.957235
H     1.744383    -0.603750     6.773937
H     5.204593    -2.039312    -5.663538
O     5.551380    -2.806833    -6.183326
H     5.275569    -3.595612    -5.665041
H     5.678833    -5.211643     4.720558
O     5.154895    -5.125130     5.546835
H     4.432578    -5.756283     5.462187
H    -3.989115     1.164278     7.019128
O    -3.800875     1.647593     7.859882
H    -4.678467     2.029749     8.118235
H    -1.850189     9.615309    -0.747370
O    -2.711159     9.490585    -0.273529
H    -3.321622     10.118342    -0.663702
H    -5.948243     4.689169    -2.936869
O    -6.856347     4.570602    -3.282624
H    -6.765558     3.866446    -3.957838
H     0.083134    -7.066520    -1.111011
O     0.546007    -7.501370    -0.361712
H    -0.135074    -7.694589     0.285784
H    -7.639505     3.793906    -1.972863
O    -7.902347     3.208882    -1.231886
H    -7.759488     2.299200    -1.569005
H     3.965004    -0.883410     7.009662
O     3.968290     0.080699     7.003644
H     4.777719     0.376127     6.569931
H     2.256914     5.792374    -1.168492
O     3.192210     5.499195    -1.052552
H     3.369245     4.957512    -1.844625
H     6.537840    -5.933864     0.710648
O     6.168572    -6.667468     1.247995
H     5.262547    -6.390985     1.468623
H    -3.882556     4.747052     7.785379
O    -3.314054     4.283043     7.129094
H    -3.509347     3.339502     7.240407
H     5.748073    -7.950500     0.179436
O     5.460348    -8.638635    -0.456481
H     4.631816    -8.313630    -0.852798
H    -0.576186     2.061022     7.708325
O    -1.202119     1.984886     6.969304
H    -2.072963     1.848180     7.363010
H    -6.390838    -0.114696     1.071744
O    -6.711938    -0.197684     0.158778
H    -7.630284    -0.469512     0.178014
H    -5.381813    -3.060205    -0.571046
O    -5.128292    -2.356045     0.051834
H    -5.698793    -1.583857    -0.136497
H     4.313775     5.574991     0.334307
O     4.646436     5.676669     1.239912
H     3.951897     6.188974     1.689964
H    -9.050412    -1.741714    -2.243353
O    -8.502955    -1.539039    -1.457496
H    -8.631445    -2.274082    -0.818004
H    -5.521929     3.465496    -5.523034
O    -6.040453     2.756157    -5.107621
H    -5.375063     2.170841    -4.691671
H     3.179530    -0.901835    -5.630557
O     2.324225    -1.021997    -6.097324
H     2.409356    -1.872124    -6.568760
H     8.113734    -1.368125    -5.996646
O     8.120591    -2.231149    -5.538262
H     7.264419    -2.630888    -5.789535
H     7.622042     0.972290    -6.282989
O     7.433168     0.123080    -6.694385
H     6.451793     0.073895    -6.732240
H    -7.872828    -3.683028     0.946044
O    -8.549861    -3.577292     0.259831
H    -8.451625    -4.338665    -0.339197
H    -2.410365     8.741791     1.292039
O    -2.260479     8.154871     2.046524
H    -1.490795     7.600517     1.825357
H    -4.451761     6.446231     3.497639
O    -4.620282     6.870974     2.640167
H    -3.856236     7.456023     2.500582
H     3.400513     3.436938    -3.560629
O     3.247955     4.406489    -3.469141
H     2.283206     4.471588    -3.578258
H    -6.120726    -1.606281    -3.428737
O    -6.204920    -2.184294    -2.644131
H    -6.989087    -1.875707    -2.136443
H     6.454049     1.053704     4.765479
O     6.058691     1.592418     5.467826
H     6.247101     2.511075     5.175574
H     1.362935     1.710184    -5.805332
O     1.167450     1.116174    -5.049892
H     1.529757     0.252010    -5.317688
H    -2.508108     2.984610     10.494319
O    -2.295445     2.077014     10.221321
H    -2.893503     1.878124     9.488608
H     7.615044    -0.497720     3.112989
O     6.864613     0.077287     3.282175
H     6.172294    -0.522447     3.660318
H    -5.672855    -8.050211    -0.674257
O    -4.938517    -8.118234    -0.027219
H    -4.942900    -7.300170     0.493872
H    -5.179356    -0.122751    -4.703264
O    -5.796345    -0.834502    -4.943258
H    -6.634159    -0.392763    -5.142582
H     1.891521    -0.214287    -7.493344
O     1.691801     0.256185    -8.338438
H     2.268731    -0.151139    -8.989990
H     4.875353    -1.415264    -9.276109
O     3.950788    -1.186167    -9.559907
H     3.931629    -1.305832    -10.508744
H     7.549312    -2.568812     4.233032
O     7.695155    -2.607099     3.273672
H     7.202803    -3.398828     3.002962
H     6.702572    -5.894850     2.724576
O     6.763633    -5.219720     3.426556
H     7.640419    -5.303872     3.843080
H    -1.826596     8.956567     3.496352
O    -1.579659     9.262776     4.394426
H    -2.428934     9.396712     4.848643
H    -7.390111     1.564401    -5.244676
O    -7.965769     0.821029    -4.999371
H    -8.867275     1.221354    -4.925011
H     6.928250    -1.105023    -8.374150
O     6.346261    -1.826297    -8.637090
H     6.116821    -2.274239    -7.804540
H    -1.670288     6.229820    -7.017928
O    -2.068904     5.405200    -6.743501
H    -1.822165     5.276074    -5.779195
H    -0.014465     3.326987     9.036304
O     0.181196     2.407217     9.293031
H    -0.619905     2.146828     9.798090
H     6.749191    -2.790534    -2.671689
O     6.218456    -3.533706    -2.328573
H     6.685846    -4.345344    -2.574477
H    -4.081850    -3.078662    -4.923897
O    -4.234129    -2.967684    -5.889286
H    -4.781205    -2.174638    -5.947648
H     1.959135     2.197705     8.484922
O     2.622198     2.305700     7.793074
H     3.053363     1.439876     7.683728
H    -6.918592    -5.197765    -1.375064
O    -7.833814    -5.467650    -1.621927
H    -7.966033    -5.066304    -2.505520
H    -3.839078     5.270941     5.701053
O    -3.804828     6.038514     5.109077
H    -2.870849     6.332090     5.203852
H    -7.890379     0.091605    -1.957233
O    -7.399995     0.814116    -2.372103
H    -7.627064     0.800793    -3.325489
H     5.829089     0.126673     0.437805
O     5.607147     0.849479     1.057248
H     6.116070     0.656161     1.870921
H    -6.232368     3.331851     7.399704
O    -6.107020     2.816436     8.230363
H    -6.705567     2.053707     8.142359
H     2.262297    -8.076750    -0.805517
O     2.942359    -8.066819    -1.498902
H     2.717756    -8.781142    -2.111936
H    -2.748059    -3.970923    -6.173609
O    -1.994660    -4.536830    -5.940033
H    -1.719830    -4.243962    -5.042816
H    -5.655900     3.777166     5.313894
O    -6.305685     4.176444     5.928728
H    -6.141065     5.120247     5.913388
H    -1.028904    -7.119379    -3.130524
O    -0.555751    -6.449151    -2.603479
H     0.351547    -6.380871    -2.984311
H     4.432276     2.026009     5.149596
O     3.490612     2.264324     5.028484
H     3.104508     2.286687     5.909154
H     4.096101     4.668166     6.316527
O     4.179814     5.396099     5.696357
H     3.612253     5.155141     4.925329
H     2.753591     3.624059     3.937284
O     2.578404     4.564208     3.770390
H     2.459039     4.661546     2.803616
H     9.386640     0.201775    -1.040451
O     8.580821     0.366365    -0.547090
H     8.403193    -0.452009    -0.053998
H    -2.119321     5.344725     10.657248
O    -2.840971     4.716221     10.889305
H    -3.062303     4.897062     11.803034
H     7.961754    -3.015315     0.362553
O     8.383295    -2.168602     0.616893
H     8.316550    -2.161524     1.578988
H     5.361739     3.668366     3.543631
O     6.015665     3.931614     4.213319
H     5.604144     4.653569     4.710467
H    -4.227164     5.045778     9.789073
O    -4.858738     5.196900     9.065930
H    -5.471490     4.448930     9.063011
H    -7.017628    -3.478057    -3.468263
O    -7.638072    -4.089955    -3.916788
H    -7.116388    -4.534007    -4.617151
H     0.010467     6.152841     10.778035
O    -0.853857     6.483694     10.529259
H    -0.737345     6.912432     9.662124
H     2.587553     1.486236    -4.085837
O     3.466220     1.838273    -3.846699
H     3.784472     1.324764    -3.074458
H    -6.987644    -0.199157     7.232881
O    -7.496505     0.580547     7.509131
H    -8.119740     0.760800     6.804247
H    -2.759231    -9.871610    -0.793960
O    -2.694616    -8.930489    -0.956200
H    -3.600513    -8.562302    -0.716837
H    -10.068023     3.076238    -4.897795
O    -10.186346     2.159406    -4.615583
H    -10.403106     2.245328    -3.666237
H    -2.275083    -3.146025     4.436195
O    -3.132995    -3.595874     4.640907
H    -3.177245    -4.252835     3.923567
H    -0.196710    -7.975700     2.524598
O     0.630397    -7.762992     2.970368
H     1.347459    -8.063754     2.384660
H     6.690169    -2.365842     6.425461
O     7.139917    -3.075789     5.962565
H     6.512617    -3.812400     5.923924
H    -5.280586    -1.994495     6.966104
O    -5.950008    -1.492657     6.482673
H    -5.939908    -1.869123     5.571386
H     0.839819     3.018509    -7.100171
O     1.757324     2.686916    -7.154698
H     1.743427     1.938023    -7.778867
H    -3.965238     8.775119     6.669510
O    -3.960821     8.771112     5.712163
H    -4.087186     7.843229     5.446036
H    -2.055522     10.311645    -2.741589
O    -2.956720     10.493480    -3.044591
H    -2.883812     11.125539    -3.759055
H     9.394993    -4.061967     4.082288
O     9.111492    -4.737232     4.706291
H     8.685406    -4.261061     5.429791
H    -0.740918    -6.007543    -5.809517
O    -0.038134    -6.573994    -5.474375
H     0.797891    -6.113568    -5.692093
H     1.823430     8.276307     0.669226
O     1.521707     8.596798    -0.209260
H     2.336939     8.632782    -0.738984
H     3.501119     2.913903    -6.644614
O     4.328049     2.623943    -6.233708
H     4.081342     2.352423    -5.324569
H     3.732549     7.120274    -1.220571
O     3.939910     8.055339    -1.435491
H     4.309745     7.997091    -2.328416
H     4.396787    -0.026656    -7.886698
O     4.773328     0.121298    -7.017314
H     4.591754     1.053850    -6.775929
H     6.024272     1.928201    -0.453068
O     6.591217     2.119009    -1.214139
H     7.414965     1.638889    -1.018028
H     6.670634    -8.440164    -1.561648
O     7.308014    -8.231127    -2.297226
H     7.673991    -9.066116    -2.583929
H    -5.308041    -5.793304    -5.382829
O    -5.923975    -5.121579    -5.700548
H    -5.371795    -4.354228    -5.937620
H     0.670249     7.190528     7.606870
O    -0.231527     7.218560     7.965523
H    -0.786314     7.232185     7.147416
H    -8.903128    -2.832633    -4.088150
O    -9.423372    -2.023350    -3.923674
H    -9.135394    -1.360089    -4.554614
H    -2.421299    -5.989452    -2.113877
O    -3.298209    -5.702358    -2.385470
H    -3.484782    -6.079302    -3.270220
H    -2.993122    -5.907049    -5.381909
O    -3.594128    -6.515468    -4.909491
H    -3.113126    -7.335666    -4.739985
H    -1.386674     3.715073    -6.972814
O    -0.847087     2.959495    -6.700052
H    -1.084513     2.173320    -7.248273
H    -0.201919     0.401957    -8.197668
O    -1.097971     0.638811    -7.915750
H    -1.274759     0.116972    -7.116978
H    -10.424236     4.058626    -2.735967
O    -10.493312     3.281167    -2.166425
H    -9.664558     3.254648    -1.656503
H     4.572529     4.081572     1.737319
O     4.365544     3.161359     2.019792
H     5.079915     2.584599     1.736606
H     6.483710     1.384681    -4.195254
O     6.179814     0.762242    -3.500050
H     6.209561     1.259938    -2.657583
H     9.623855    -2.235437    -0.893998
O     9.901774    -2.022762    -1.793726
H     9.102103    -1.684749    -2.239046
H     9.962006    -3.335105    -3.060424
O     9.694805    -3.988592    -3.733842
H     9.302607    -3.482368    -4.455931
H    -7.712450    -8.569481    -1.637343
O    -6.973928    -7.976475    -1.768005
H    -7.350512    -7.062884    -1.759845
H     4.162121     6.070972    -3.809004
O     4.823785     6.771766    -3.724604
H     5.659447     6.317346    -3.585466
H     0.088703    -8.180036    -5.178975
O     0.112391    -9.162659    -5.044997
H     0.262689    -9.528376    -5.916772
H    -2.346116    -8.675383    -2.681202
O    -2.109951    -8.413835    -3.590922
H    -1.463949    -9.034292    -3.947174
H     2.170000    -10.824249    -3.450794
O     2.125341    -9.869566    -3.428980
H     1.340644    -9.599178    -3.956638
H     6.835767     3.316452    -4.553907
O     6.894249     2.636445    -5.252973
H     6.101606     2.769067    -5.795074
H    -3.587783    -3.529137     7.831929
O    -3.677057    -2.847173     7.165255
H    -3.485393    -3.282228     6.299635
H    -0.640864    -3.374048    -6.698699
O    -0.009744    -2.643319    -6.707073
H    -0.491251    -1.866681    -6.367650
H     0.612807     0.561845     8.972005
O     0.560411    -0.229240     8.422611
H    -0.400383    -0.365298     8.301182
H    -5.831258     7.366349    -4.254390
O    -6.333863     6.746822    -4.814913
H    -6.622128     6.017159    -4.222654
H    -4.275453     9.102467    -3.267794
O    -4.811872     8.306951    -3.160634
H    -4.404864     7.828522    -2.420249
H    -9.709348     5.798212    -4.650624
O    -10.243509     4.994319    -4.486038
H    -11.123685     5.195181    -4.806020
H     2.758285     6.528516     6.148923
O     1.798339     6.625788     6.246367
H     1.453307     5.713015     6.144399
H     4.802159     8.545251     0.091503
O     5.118852     8.547732     1.012711
H     5.524776     7.683311     1.145718
H     4.133553    -7.437397    -4.302812
O     3.376111    -7.722568    -4.845625
H     3.094204    -8.562421    -4.468206
H     0.370170     8.670194     4.235797
O     1.048274     8.025016     4.010240
H     1.272728     7.533618     4.826226
H     5.234183     4.182037    -3.140971
O     6.195570     4.151291    -3.086944
H     6.403026     3.571348    -2.337600
H    -2.638957    -1.420112     7.585860
O    -2.158536    -0.619124     7.878525
H    -2.831096    -0.043402     8.261071
H    -9.024594     7.938409    -4.154266
O    -8.960832     7.352561    -4.910025
H    -8.003713     7.187228    -5.043432
H     3.512356    -8.979993     1.130416
O     2.836858    -8.347583     1.380872
H     3.311936    -7.541543     1.656919
H     3.580449     8.174841     1.836307
O     2.789994     7.611467     1.949237
H     2.342212     7.849938     2.773744
N    -0.207367    -3.340833     6.734950
H     0.042002    -2.562056     7.244410
H     0.655329    -3.675082     6.412825
