603

H     0.212797     3.047711    -0.676314
O     0.735415     2.378396    -1.168559
H     1.674272     2.506945    -0.895985
H    -0.064753    -1.286336     3.157817
O     0.328025    -0.586582     2.613346
H    -0.150232     0.226995     2.845219
H    -2.386260     2.429192    -0.532044
O    -2.175257     1.958913     0.292041
H    -2.193371     1.010869     0.067718
H    -4.651132     0.569785     2.188096
O    -4.968539    -0.363437     2.202534
H    -4.464757    -0.842014     1.536011
H     0.075117    -0.290466     0.957878
O    -0.122200    -0.054727     0.030751
H     0.216565     0.841921    -0.090859
H    -0.144735    -3.555906     3.787466
O    -0.422636    -2.724996     4.207061
H     0.223673    -2.554599     4.908703
H    -4.873712     2.552642     1.334325
O    -4.234175     2.143271     1.949201
H    -3.391781     2.124651     1.435969
H    -3.235907     3.915681    -2.209057
O    -2.498400     3.318647    -1.977771
H    -2.140939     3.029401    -2.837410
H    -0.116667    -3.786989     0.513105
O     0.223972    -2.969246     0.929969
H    -0.563058    -2.482016     1.241388
H    -2.367505    -1.517154     2.477373
O    -2.178656    -1.984066     1.636955
H    -2.437204    -1.397843     0.906768
H     2.082188    -1.428792    -1.114474
O     2.313879    -1.680355    -0.196634
H     1.524614    -2.107553     0.187576
H    -1.379608     1.844651     1.915732
O    -1.469202     1.447749     2.792350
H    -1.456001     2.160753     3.456662
H     0.216701    -2.687971    -1.561794
O    -0.538480    -2.075799    -1.616727
H    -0.358346    -1.348945    -0.983694
H    -3.428611    -2.906315    -0.381807
O    -2.711462    -3.399295    -0.801722
H    -2.001160    -2.769241    -1.021216
H     2.783691     0.146955     2.938106
O     2.883799    -0.033369     3.900077
H     2.974336     0.860018     4.303061
H    -3.514619     6.399787    -0.543219
O    -3.275620     7.061238    -1.244267
H    -3.133187     7.906865    -0.775140
H     3.913643     0.597958     1.189258
O     2.962589     0.418913     1.305636
H     2.723905    -0.334279     0.727580
H    -5.770854     0.862598    -1.598540
O    -4.860140     1.189328    -1.472625
H    -4.970510     2.018469    -0.962072
H    -1.199828     5.417717     2.207656
O    -1.823633     4.669067     2.094085
H    -1.900854     4.253552     2.958106
H     3.502858     2.775413     0.426630
O     3.258525     2.734982    -0.512899
H     3.589158     1.891396    -0.863485
H     1.497620    -4.683177    -2.240926
O     1.562990    -3.905377    -1.668602
H     2.357862    -3.445269    -2.020558
H    -0.912611    -0.069867    -2.542847
O    -0.277870     0.581760    -2.867532
H    -0.017143     1.164624    -2.131250
H     1.706365    -4.669975    -0.169753
O     1.813078    -5.306286     0.573571
H     1.349042    -6.117464     0.278516
H    -1.219643    -3.250616    -2.870992
O    -1.046661    -3.934853    -3.530971
H    -0.920788    -4.781363    -3.061094
H    -2.767071     3.332045     4.707536
O    -1.785742     3.327704     4.673733
H    -1.493765     2.926686     5.510648
H     0.975024     5.053204     4.078460
O     0.028838     5.284246     4.127284
H    -0.443300     4.482208     4.388214
H    -1.723306    -4.632650    -0.360913
O    -0.958439    -5.173612    -0.075567
H    -1.306373    -5.859739     0.503340
H    -3.904294     5.849975    -2.597198
O    -4.255527     5.015747    -2.926159
H    -4.101072     4.980099    -3.894404
H    -2.422199    -3.668498     1.945829
O    -2.441088    -4.572252     2.322673
H    -1.501444    -4.810882     2.463091
H    -4.688415    -2.961994    -2.888990
O    -3.836317    -3.195852    -3.295270
H    -3.505784    -3.989249    -2.829316
H     0.352215     1.398281     4.618057
O     0.860577     2.157099     4.284645
H     0.907495     2.817103     4.990558
H    -4.649079    -5.151194    -1.558970
O    -5.350443    -4.796654    -0.985333
H    -5.137240    -5.150315    -0.100905
H     2.330696    -6.470358    -4.028694
O     1.994245    -6.140559    -3.175332
H     2.428568    -6.714054    -2.511740
H     0.473174    -3.366316    -3.997110
O     1.275984    -3.000240    -4.420786
H     0.956511    -2.629433    -5.269625
H     1.973245    -1.734292     2.988048
O     2.128534    -2.665342     2.771656
H     1.442336    -2.879698     2.105173
H    -3.007385    -1.792798    -3.201726
O    -2.584593    -0.906527    -3.137609
H    -3.239733    -0.260753    -3.457778
H    -3.176972     4.996115     1.081115
O    -3.958339     5.369962     0.626397
H    -4.372956     5.928712     1.332231
H     0.888195     2.271906     2.594433
O     0.989730     2.267646     1.623233
H     1.714576     1.642029     1.458917
H     0.204354     5.677539    -0.755584
O     0.727436     6.339181    -1.263368
H     0.882232     7.135523    -0.704473
H     0.334392     7.047392     2.593606
O    -0.008877     6.671983     1.765245
H     0.657357     6.000670     1.511822
H    -2.468566     0.237592     3.346877
O    -2.690612    -0.575815     3.852687
H    -1.929904    -0.615266     4.474117
H    -0.881259     0.577687     6.030362
O    -0.607492     0.057926     5.256056
H     0.105228    -0.546284     5.543132
H     0.717231    -4.975775     1.990095
O     0.175409    -5.083975     2.795060
H     0.319453    -6.004467     3.067972
H    -2.114167    -8.069127     0.462182
O    -1.791056    -7.580617     1.246761
H    -2.576931    -7.268369     1.702847
H    -0.364493     6.880616    -2.324509
O    -1.110331     7.300065    -2.824588
H    -1.900761     7.174531    -2.261420
H    -1.100139     4.328401     0.574704
O    -0.726717     4.388473    -0.321262
H    -1.433920     4.146787    -0.953211
H    -4.396522     2.771191     3.511204
O    -4.394205     2.942351     4.475654
H    -4.478283     2.059734     4.885572
H     2.033386    -3.562544     4.252091
O     1.969746    -4.033836     5.105837
H     2.477124    -3.496761     5.735812
H     4.696033    -3.180253     0.845436
O     4.535168    -3.105199    -0.120992
H     3.676475    -2.627642    -0.204516
H    -2.714001    -0.730375    -1.344934
O    -3.040630    -0.459177    -0.470549
H    -3.841039     0.066745    -0.677597
H    -1.609416    -0.746922    -4.624870
O    -1.102565    -0.532201    -5.429145
H    -0.392234     0.064119    -5.144857
H     1.802398    -1.702372    -3.370889
O     1.895404    -0.955020    -2.748469
H     1.118233    -0.377707    -2.879796
H     3.671860    -3.105356     2.557284
O     4.630755    -3.334842     2.484251
H     4.684899    -4.294978     2.611596
H     3.433254    -6.103770     3.132971
O     3.788670    -5.903753     2.232497
H     3.051046    -5.558566     1.689479
H    -3.334576     1.626905    -4.172783
O    -4.179670     1.156940    -3.981258
H    -4.396785     1.303708    -3.024686
H    -5.069621     4.168791     0.069776
O    -5.508884     3.302927    -0.032419
H    -6.439311     3.422577    -0.314025
H     6.742172    -1.170549    -1.359066
O     5.970579    -1.020033    -0.806453
H     5.551278    -1.887524    -0.608507
H     4.600359    -3.158162    -2.464341
O     3.732248    -2.986665    -2.879795
H     3.734751    -3.606075    -3.635457
H     4.445976    -2.274495     5.626957
O     4.103400    -2.738505     6.421110
H     4.437074    -3.644088     6.340072
H    -0.739487     6.361019     5.074324
O    -1.334943     6.937340     5.612774
H    -1.348392     7.814451     5.170329
H     4.707521    -0.124364    -1.463300
O     3.939922     0.418316    -1.725164
H     3.247307    -0.182087    -2.055351
H    -0.731441     4.537701    -4.036337
O    -1.513732     5.081402    -4.243924
H    -1.361027     5.948305    -3.822418
H     0.669900     3.217511    -2.656818
O     0.677702     3.593555    -3.565516
H     0.723796     2.829543    -4.150435
H    -5.376979    -5.170484     1.806835
O    -4.680900    -5.766138     1.451945
H    -3.839942    -5.350594     1.721744
H     7.887836    -1.683773    -4.030635
O     7.630314    -1.369438    -3.131261
H     7.144423    -0.525115    -3.288675
H     3.704252    -5.063759    -5.281734
O     4.467203    -4.690495    -4.801350
H     4.851482    -5.401350    -4.255218
H    -3.772648     0.043050     4.941521
O    -4.372360     0.508267     5.574228
H    -5.033106    -0.148927     5.866963
H     3.469223    -5.928706    -0.510122
O     4.342060    -5.682626    -0.828468
H     4.419181    -4.720190    -0.686159
H     5.008100    -0.327272    -4.157696
O     4.471589    -1.038471    -4.546354
H     4.145733    -1.620962    -3.827766
H    -1.163707     1.585960    -3.932924
O    -1.813731     2.207087    -4.318408
H    -1.456699     2.537277    -5.165574
H     4.888537    -6.311615    -2.305962
O     5.220545    -6.637790    -3.171446
H     6.038321    -7.119121    -2.984758
H     8.744402    -5.085133    -2.912472
O     8.053050    -5.501823    -2.353336
H     8.086975    -6.459255    -2.454524
H     2.344437     4.733499     0.449853
O     1.773475     4.718765     1.226930
H     1.413804     3.799294     1.306853
H    -4.406034    -2.609572     4.241272
O    -5.299857    -2.269539     4.039095
H    -5.162774    -1.489197     3.462555
H    -5.838552    -3.172651     1.328547
O    -6.301360    -3.728650     1.997743
H    -6.112236    -3.292442     2.847740
H     1.701970     3.488672     6.864646
O     1.080877     4.006291     6.330290
H     0.297069     4.160674     6.900860
H     5.010484    -2.152680     3.620915
O     5.031950    -1.433338     4.283975
H     4.220496    -0.876805     4.127240
H     2.398137    -5.556730     4.848121
O     2.777455    -6.441036     4.588937
H     2.031969    -7.022225     4.415643
H     2.259357    -4.508291    -6.781778
O     2.090218    -4.995564    -5.965476
H     1.826478    -4.303422    -5.310710
H     6.445807    -4.092055    -0.497652
O     7.198772    -4.495254    -0.034098
H     7.705524    -4.919134    -0.754632
H    -1.707922     4.516324     7.702445
O    -0.808176     4.614665     8.085932
H    -0.627620     5.573920     8.109779
H    -5.107760     5.709236    -5.594695
O    -4.500659     4.945314    -5.614352
H    -3.743699     5.158484    -6.181196
H     3.284170    -2.522452    -8.431040
O     3.196492    -3.053937    -7.628928
H     4.073449    -3.029914    -7.200724
H    -0.637421     8.843152    -2.276957
O    -0.511796     9.669641    -1.755558
H     0.253151     9.496946    -1.183365
H     2.077787    -0.891222     5.216858
O     1.505042    -1.416284     5.804962
H     1.599114    -1.070031     6.701788
H     5.210304    -2.017750    -5.688858
O     5.555512    -2.784963    -6.210081
H     5.281498    -3.574070    -5.691397
H     5.703016    -5.197337     4.693525
O     5.181297    -5.110772     5.520410
H     4.459512    -5.742642     5.436281
H    -3.960662     1.173712     7.013192
O    -3.767546     1.650405     7.856299
H    -4.643269     2.036957     8.117220
H    -1.833251     9.633442    -0.747408
O    -2.695047     9.507243    -0.276110
H    -3.304724     10.136832    -0.664552
H    -5.937129     4.708615    -2.935750
O    -6.846086     4.589751    -3.279214
H    -6.756569     3.886539    -3.955561
H     0.097695    -7.048857    -1.130556
O     0.562040    -7.484123    -0.382538
H    -0.116978    -7.677915     0.266802
H    -7.626568     3.812563    -1.968898
O    -7.887845     3.226610    -1.227979
H    -7.745788     2.317432    -1.566650
H     3.984595    -0.871323     6.990669
O     3.994756     0.092857     6.979891
H     4.807589     0.380481     6.548028
H     2.265711     5.810503    -1.185205
O     3.200080     5.512988    -1.069921
H     3.379407     4.974130    -1.863780
H     6.555541    -5.917303     0.679966
O     6.186711    -6.652661     1.214891
H     5.282474    -6.374642     1.441740
H    -3.851332     4.758170     7.783070
O    -3.285010     4.293977     7.124740
H    -3.479972     3.350963     7.236029
H     5.765425    -7.933281     0.148784
O     5.476602    -8.621089    -0.487531
H     4.647521    -8.295400    -0.881821
H    -0.543204     2.067810     7.697158
O    -1.176703     2.002976     6.962333
H    -2.045195     1.862331     7.359310
H    -6.373748    -0.097769     1.071154
O    -6.694189    -0.182338     0.158468
H    -7.613207    -0.452169     0.176992
H    -5.365797    -3.043050    -0.576797
O    -5.112638    -2.340285     0.047995
H    -5.682307    -1.567261    -0.140131
H     4.207942     5.537164     0.289058
O     4.640994     5.693487     1.150067
H     3.977930     6.232667     1.631150
H    -9.037782    -1.722815    -2.241250
O    -8.489273    -1.520911    -1.455755
H    -8.616766    -2.256782    -0.817224
H    -5.516082     3.486828    -5.523401
O    -6.033649     2.776970    -5.107561
H    -5.367289     2.191451    -4.693606
H     3.185321    -0.880333    -5.651113
O     2.328877    -1.000404    -6.115969
H     2.413677    -1.849934    -6.588625
H     8.118907    -1.346123    -6.026928
O     8.126632    -2.209583    -5.569370
H     7.270103    -2.609217    -5.819172
H     7.626677     0.994145    -6.310574
O     7.436775     0.145333    -6.722436
H     6.455427     0.096277    -6.758141
H    -7.854251    -3.668010     0.943733
O    -8.532917    -3.561331     0.259587
H    -8.435665    -4.321567    -0.341242
H    -2.393413     8.758560     1.289514
O    -2.242191     8.170160     2.042525
H    -1.473547     7.616357     1.817580
H    -4.428811     6.460805     3.497058
O    -4.599243     6.885389     2.639936
H    -3.835844     7.471093     2.499063
H     3.410304     3.456727    -3.578052
O     3.256660     4.426038    -3.484158
H     2.292028     4.490998    -3.594082
H    -6.110346    -1.587128    -3.431695
O    -6.193119    -2.165355    -2.646935
H    -6.976643    -1.857031    -2.138252
H     6.480295     1.067268     4.738902
O     6.088019     1.609942     5.440012
H     6.279561     2.526539     5.146356
H     1.368034     1.731499    -5.820440
O     1.173657     1.136823    -5.065109
H     1.536204     0.273108    -5.334230
H    -2.471982     2.995104     10.487436
O    -2.260177     2.087234     10.214696
H    -2.858933     1.886876     9.483371
H     7.637391    -0.481987     3.084577
O     6.887559     0.093848     3.253832
H     6.195476    -0.506511     3.633696
H    -5.657252    -8.033120    -0.682994
O    -4.921994    -8.101572    -0.037001
H    -4.924885    -7.283686     0.484028
H    -5.171851    -0.102453    -4.706920
O    -5.789562    -0.814089    -4.945432
H    -6.627513    -0.372060    -5.143599
H     1.893683    -0.191698    -7.510853
O     1.691777     0.279198    -8.355198
H     2.267804    -0.127215    -9.008152
H     4.873926    -1.391365    -9.300220
O     3.948702    -1.162246    -9.582112
H     3.927938    -1.281003    -10.531026
H     7.572830    -2.554832     4.204047
O     7.718607    -2.591388     3.244435
H     7.225340    -3.382646     2.973580
H     6.726364    -5.879653     2.692883
O     6.789106    -5.203664     3.393215
H     7.665209    -5.289081     3.810537
H    -1.804054     8.971136     3.494226
O    -1.557970     9.275512     4.392876
H    -2.407545     9.409957     4.846137
H    -7.383526     1.585235    -5.243018
O    -7.958669     0.841810    -4.996569
H    -8.860107     1.242143    -4.920695
H     6.928616    -1.081431    -8.402167
O     6.345985    -1.802447    -8.664475
H     6.118472    -2.251074    -7.831772
H    -1.667652     6.252060    -7.023698
O    -2.065768     5.427396    -6.748632
H    -1.816923     5.297888    -5.785042
H     0.017030     3.339987     9.024429
O     0.214010     2.420531     9.280760
H    -0.584134     2.157364     9.788074
H     6.761009    -2.770863    -2.700277
O     6.230205    -3.514333    -2.357919
H     6.697892    -4.325770    -2.603969
H    -4.074554    -3.057853    -4.932069
O    -4.229115    -2.946285    -5.896926
H    -4.776015    -2.153037    -5.953819
H     1.994731     2.209182     8.467604
O     2.658550     2.320652     7.777331
H     3.079773     1.449953     7.661990
H    -6.904313    -5.179930    -1.379772
O    -7.820214    -5.449105    -1.624439
H    -7.954071    -5.047552    -2.507818
H    -3.811498     5.283836     5.698950
O    -3.778904     6.051016     5.106582
H    -2.844969     6.345800     5.199889
H    -7.877735     0.109844    -1.956479
O    -7.387531     0.832522    -2.371116
H    -7.616443     0.820597    -3.324226
H     5.845784     0.145833     0.414347
O     5.624384     0.868015     1.034949
H     6.135658     0.672715     1.847299
H    -6.199687     3.343148     7.401783
O    -6.071562     2.825671     8.230871
H    -6.672700     2.064871     8.143912
H     2.279425    -8.059052    -0.828728
O     2.956161    -8.047848    -1.525241
H     2.730443    -8.762508    -2.137379
H    -2.743271    -3.949193    -6.185113
O    -1.989935    -4.515737    -5.953084
H    -1.712833    -4.223278    -5.056472
H    -5.629437     3.790694     5.313701
O    -6.277471     4.188346     5.931254
H    -6.113808     5.132346     5.916066
H    -1.017644    -7.099794    -3.148025
O    -0.544330    -6.429719    -2.620959
H     0.362926    -6.361486    -3.002638
H     4.458519     2.037785     5.129901
O     3.517903     2.281277     5.009454
H     3.133197     2.296416     5.891227
H     4.159739     4.733536     6.271338
O     4.229133     5.456355     5.643335
H     3.653544     5.201351     4.881311
H     2.783027     3.646504     3.934599
O     2.605913     4.585517     3.761149
H     2.494754     4.678984     2.793382
H     9.401280     0.220944    -1.071262
O     8.595482     0.383696    -0.577336
H     8.420116    -0.434824    -0.083622
H    -2.082014     5.354075     10.651520
O    -2.804067     4.726113     10.884159
H    -3.022374     4.905283     11.798973
H     7.979248    -2.998098     0.331983
O     8.401008    -2.151401     0.585952
H     8.336048    -2.145345     1.548286
H     5.391085     3.679382     3.518885
O     6.049559     3.951593     4.180213
H     5.641677     4.680292     4.670049
H    -4.190918     5.056510     9.787394
O    -4.824098     5.207004     9.065384
H    -5.436790     4.459059     9.064331
H    -7.007446    -3.458629    -3.471156
O    -7.628706    -4.070603    -3.918317
H    -7.108464    -4.513994    -4.620288
H     0.047323     6.161978     10.768725
O    -0.817560     6.492896     10.521920
H    -0.703063     6.922288     9.654890
H     2.596156     1.506091    -4.103440
O     3.474578     1.859066    -3.865105
H     3.795543     1.344338    -3.094771
H    -6.960363    -0.185209     7.230032
O    -7.467984     0.594171     7.509679
H    -8.091514     0.777185     6.805781
H    -2.742939    -9.854264    -0.809791
O    -2.679084    -8.912873    -0.970851
H    -3.584564    -8.545346    -0.730164
H    -10.060726     3.096643    -4.890317
O    -10.178391     2.179657    -4.608275
H    -10.393443     2.265173    -3.658506
H    -2.059025    -2.998563     4.624984
O    -2.934220    -3.437849     4.695889
H    -2.929185    -4.056651     3.940381
H    -0.174575    -7.961273     2.501725
O     0.652265    -7.750758     2.948744
H     1.369935    -8.048090     2.361894
H     6.715705    -2.355495     6.397786
O     7.164693    -3.065670     5.934449
H     6.534530    -3.800407     5.897088
H    -5.261350    -1.971545     6.955510
O    -5.937530    -1.473506     6.471368
H    -5.922337    -1.851774     5.562685
H     0.842186     3.040912    -7.113532
O     1.759355     2.708911    -7.169428
H     1.744691     1.960848    -7.794589
H    -3.936452     8.786303     6.670187
O    -3.938079     8.782879     5.712832
H    -4.062587     7.854810     5.446634
H    -2.041886     10.331322    -2.743648
O    -2.943719     10.512432    -3.044404
H    -2.873225     11.146240    -3.757609
H     9.418456    -4.046011     4.049213
O     9.138454    -4.722868     4.673048
H     8.710018    -4.249022     5.396829
H    -0.735186    -5.986083    -5.826564
O    -0.032024    -6.552738    -5.492653
H     0.803760    -6.092335    -5.711645
H     1.904735     8.377020     0.657863
O     1.544292     8.609792    -0.224090
H     2.322383     8.634060    -0.805179
H     3.504525     2.936176    -6.663093
O     4.332042     2.645412    -6.254135
H     4.087741     2.373709    -5.344517
H     3.748706     7.112728    -1.301550
O     3.984126     8.027636    -1.565529
H     4.303077     7.881631    -2.477167
H     4.398148    -0.003456    -7.909179
O     4.775688     0.143405    -7.040075
H     4.595408     1.075970    -6.797751
H     6.040628     1.943921    -0.476062
O     6.604794     2.136784    -1.238526
H     7.430027     1.658053    -1.045345
H     6.684390    -8.421479    -1.594344
O     7.319853    -8.212339    -2.331723
H     7.685437    -9.047283    -2.619005
H    -5.301463    -5.772478    -5.390709
O    -5.918312    -5.100361    -5.705862
H    -5.366685    -4.332975    -5.944160
H     0.700028     7.201922     7.598538
O    -0.201585     7.230619     7.956862
H    -0.757309     7.244480     7.139256
H    -8.894324    -2.812870    -4.086879
O    -9.413896    -2.003654    -3.920041
H    -9.127835    -1.339909    -4.551367
H    -2.408072    -5.970774    -2.128295
O    -3.286136    -5.683952    -2.396636
H    -3.474346    -6.059663    -3.281753
H    -2.986891    -5.885989    -5.393939
O    -3.586878    -6.494605    -4.920325
H    -3.105551    -7.315110    -4.753085
H    -1.383903     3.737524    -6.980922
O    -0.844385     2.981484    -6.709329
H    -1.082293     2.195933    -7.258247
H    -0.201212     0.425332    -8.210731
O    -1.096766     0.661871    -7.926826
H    -1.271849     0.139338    -7.128192
H    -10.413056     4.077372    -2.726996
O    -10.480719     3.299493    -2.157807
H    -9.650993     3.273052    -1.649536
H     4.589157     4.106283     1.718782
O     4.387847     3.187488     1.998713
H     5.099447     2.609661     1.709261
H     6.492160     1.405341    -4.220376
O     6.188868     0.782450    -3.525073
H     6.221415     1.279584    -2.682330
H     9.638865    -2.217390    -0.927443
O     9.914866    -2.004820    -1.827819
H     9.114648    -1.665440    -2.270987
H     9.972843    -3.315524    -3.095402
O     9.704557    -3.968313    -3.769144
H     9.310971    -3.461307    -4.489903
H    -7.698489    -8.551715    -1.643909
O    -6.960261    -7.958108    -1.773420
H    -7.337205    -7.044784    -1.764627
H     4.171986     6.081351    -3.835340
O     4.830080     6.786346    -3.762799
H     5.667572     6.342129    -3.601973
H     0.095633    -8.158999    -5.199124
O     0.118747    -9.141743    -5.065945
H     0.268262    -9.506824    -5.938126
H    -2.333499    -8.656714    -2.697087
O    -2.100133    -8.394204    -3.607123
H    -1.454381    -9.013715    -3.965655
H     2.180519    -10.804567    -3.477310
O     2.135116    -9.849967    -3.454056
H     1.349653    -9.579206    -3.980206
H     6.844414     3.336555    -4.578481
O     6.900429     2.656432    -5.277856
H     6.107349     2.790960    -5.818637
H    -3.554074    -3.690728     7.734151
O    -3.667615    -2.903408     7.203215
H    -3.417465    -3.143971     6.284988
H    -0.637089    -3.352068    -6.713852
O    -0.006143    -2.621262    -6.722608
H    -0.486967    -1.844833    -6.381913
H     0.656161     0.490931     8.757657
O     0.662944    -0.224388     8.117685
H    -0.259468    -0.513140     8.031236
H    -5.822495     7.386862    -4.251422
O    -6.326330     6.767624    -4.811182
H    -6.613584     6.037827    -4.218754
H    -4.264822     9.121907    -3.266905
O    -4.801059     8.326417    -3.158984
H    -4.392579     7.847627    -2.419664
H    -9.701699     5.818465    -4.641214
O    -10.235590     5.014428    -4.476266
H    -11.116234     5.215628    -4.794768
H     2.791596     6.541463     6.126667
O     1.832563     6.629916     6.242671
H     1.492703     5.713828     6.147029
H     5.499336     8.192047    -0.407955
O     6.109634     8.036467     0.338553
H     5.851610     7.141525     0.626146
H     4.142090    -7.416726    -4.330040
O     3.383343    -7.701584    -4.871377
H     3.102749    -8.541872    -4.493989
H     0.349697     8.649359     4.272768
O     0.993979     7.963096     4.054131
H     1.212368     7.491551     4.886102
H     5.244114     4.201943    -3.161220
O     6.205374     4.168915    -3.111553
H     6.415886     3.592334    -2.360675
H    -2.565238    -1.513795     7.583082
O    -2.054119    -0.720634     7.801627
H    -2.679243    -0.093408     8.175339
H    -9.015862     7.958725    -4.144994
O    -8.953678     7.372777    -4.900803
H    -7.996818     7.208005    -5.036575
H     3.532263    -8.962837     1.105333
O     2.856345    -8.330253     1.354188
H     3.331832    -7.524939     1.632579
H     3.608808     8.379838     2.229001
O     2.882483     7.736287     2.057899
H     2.298193     7.809411     2.838413
N     5.027325     9.354282     2.431774
H     5.524263     9.083278     3.209321
H     5.524359     8.961442     1.666519
