603

H     0.234508     3.025843    -0.639564
O     0.751402     2.357610    -1.138858
H     1.692588     2.481246    -0.871200
H    -0.035244    -1.331640     3.169392
O     0.355966    -0.628986     2.627435
H    -0.118328     0.184379     2.867065
H    -2.366567     2.415207    -0.483000
O    -2.152662     1.939391     0.337229
H    -2.174748     0.992785     0.106837
H    -4.620759     0.547368     2.238908
O    -4.940846    -0.384842     2.250456
H    -4.444187    -0.861248     1.577038
H     0.094759    -0.321907     0.974688
O    -0.108800    -0.079024     0.050856
H     0.234470     0.816310    -0.068050
H    -0.119969    -3.603474     3.785323
O    -0.392032    -2.774072     4.211862
H     0.259329    -2.611267     4.910682
H    -4.842226     2.536176     1.399783
O    -4.199889     2.121856     2.008587
H    -3.361391     2.102278     1.488870
H    -3.221125     3.914905    -2.146166
O    -2.484349     3.313969    -1.922552
H    -2.132911     3.028571    -2.786022
H    -0.111965    -3.815044     0.509833
O     0.233763    -3.000792     0.929489
H    -0.549830    -2.513111     1.248543
H    -2.343664    -1.549789     2.501384
O    -2.161123    -2.011578     1.657056
H    -2.422119    -1.420053     0.931983
H     2.084960    -1.454353    -1.116778
O     2.321146    -1.712019    -0.201775
H     1.532958    -2.139416     0.184397
H    -1.347090     1.811448     1.953741
O    -1.433354     1.411976     2.829692
H    -1.410837     2.121954     3.496062
H     0.212437    -2.704202    -1.560533
O    -0.540848    -2.088946    -1.606792
H    -0.354279    -1.366848    -0.970269
H    -3.426447    -2.917214    -0.359623
O    -2.713410    -3.410029    -0.786612
H    -2.002274    -2.781168    -1.006737
H     2.817019     0.094063     2.940800
O     2.920633    -0.092974     3.901270
H     3.019392     0.797047     4.309474
H    -3.481547     6.389585    -0.463323
O    -3.243864     7.054984    -1.161024
H    -3.096420     7.897063    -0.687140
H     3.936646     0.552978     1.188672
O     2.985912     0.375222     1.310048
H     2.741767    -0.373325     0.728264
H    -5.763045     0.866786    -1.538908
O    -4.850493     1.189657    -1.416048
H    -4.955222     2.015828    -0.899594
H    -1.150469     5.382555     2.268725
O    -1.778946     4.638146     2.154205
H    -1.854371     4.216206     3.015079
H     3.532789     2.737054     0.441923
O     3.278271     2.701005    -0.495592
H     3.605124     1.859194    -0.853552
H     1.482294    -4.699560    -2.259506
O     1.553702    -3.925369    -1.682980
H     2.348129    -3.466006    -2.036877
H    -0.913631    -0.076618    -2.518260
O    -0.278992     0.575185    -2.842831
H    -0.011510     1.152413    -2.104555
H     1.703564    -4.699962    -0.189739
O     1.812453    -5.340976     0.549176
H     1.344122    -6.148935     0.251958
H    -1.233902    -3.254127    -2.863997
O    -1.067079    -3.934594    -3.529387
H    -0.941285    -4.784609    -3.065779
H    -2.714647     3.285901     4.759597
O    -1.732630     3.287600     4.725423
H    -1.437264     2.870172     5.552806
H     1.038289     4.998800     4.118213
O     0.093194     5.234756     4.181850
H    -0.383149     4.431979     4.433038
H    -1.727015    -4.649842    -0.359596
O    -0.962120    -5.194686    -0.081959
H    -1.308744    -5.883778     0.494251
H    -3.885264     5.853944    -2.519109
O    -4.241296     5.022585    -2.850017
H    -4.093780     4.991907    -3.819595
H    -2.408398    -3.697746     1.956903
O    -2.428151    -4.603360     2.328969
H    -1.488485    -4.846401     2.461738
H    -4.701581    -2.953400    -2.859099
O    -3.852701    -3.187402    -3.271978
H    -3.522134    -3.985060    -2.813332
H     0.400182     1.341409     4.643433
O     0.904332     2.104486     4.312008
H     0.959246     2.756094     5.023315
H    -4.661828    -5.150560    -1.542986
O    -5.358190    -4.796840    -0.962776
H    -5.141066    -5.157208    -0.082002
H     2.298267    -6.478491    -4.063311
O     1.968173    -6.152648    -3.205934
H     2.404403    -6.731881    -2.548557
H     0.451820    -3.368414    -4.001258
O     1.253192    -3.002192    -4.427553
H     0.929741    -2.625394    -5.272248
H     2.000515    -1.784628     2.984354
O     2.150523    -2.714929     2.761407
H     1.459608    -2.922674     2.097718
H    -3.018414    -1.788131    -3.174683
O    -2.592356    -0.903598    -3.107483
H    -3.247195    -0.253876    -3.420119
H    -3.139060     4.974504     1.149628
O    -3.921715     5.354372     0.702779
H    -4.329682     5.909997     1.415117
H     0.927105     2.227554     2.620563
O     1.022050     2.228618     1.649205
H     1.744930     1.602785     1.476368
H     0.233004     5.651836    -0.706630
O     0.754701     6.314129    -1.214792
H     0.903263     7.110707    -0.656274
H     0.417413     7.014389     2.646902
O     0.044503     6.635833     1.833790
H     0.704663     5.965545     1.561685
H    -2.432417     0.200294     3.382885
O    -2.654203    -0.614884     3.885692
H    -1.890099    -0.662178     4.501699
H    -0.827943     0.517826     6.062701
O    -0.559127     0.008221     5.281045
H     0.152264    -0.603491     5.557586
H     0.726578    -5.015696     1.974353
O     0.189145    -5.126661     2.781900
H     0.331668    -6.049316     3.048386
H    -2.124682    -8.089822     0.444418
O    -1.795081    -7.606822     1.229733
H    -2.577084    -7.295523     1.693049
H    -0.341569     6.869323    -2.263821
O    -1.089475     7.295381    -2.755315
H    -1.876306     7.168904    -2.187309
H    -1.068498     4.302411     0.626868
O    -0.700421     4.367838    -0.270687
H    -1.411416     4.131356    -0.900540
H    -4.350182     2.739313     3.574960
O    -4.339110     2.903827     4.540785
H    -4.426650     2.018760     4.945213
H     2.061569    -3.621013     4.236932
O     2.000501    -4.096673     5.088392
H     2.515607    -3.566571     5.718080
H     4.704724    -3.226796     0.816497
O     4.538132    -3.145085    -0.148455
H     3.680625    -2.664123    -0.223688
H    -2.709953    -0.737970    -1.313151
O    -3.030194    -0.470486    -0.435216
H    -3.830383     0.058806    -0.634507
H    -1.625508    -0.738219    -4.600051
O    -1.123018    -0.519960    -5.406084
H    -0.408714     0.071898    -5.122461
H     1.790475    -1.713057    -3.372953
O     1.889775    -0.969797    -2.746558
H     1.113927    -0.388997    -2.869863
H     3.691178    -3.159120     2.534908
O     4.648810    -3.391110     2.454511
H     4.700760    -4.352170     2.575850
H     3.445781    -6.159918     3.093643
O     3.796340    -5.955361     2.192259
H     3.056500    -5.604517     1.655976
H    -3.339674     1.638772    -4.122977
O    -4.185301     1.170673    -3.929220
H    -4.396043     1.312122    -2.970498
H    -5.041318     4.160140     0.145200
O    -5.483667     3.296078     0.042014
H    -6.415321     3.419867    -0.234342
H     6.744620    -1.211245    -1.388001
O     5.976335    -1.061167    -0.830740
H     5.555318    -1.928349    -0.634901
H     4.588783    -3.183774    -2.492426
O     3.718854    -3.006645    -2.901669
H     3.714661    -3.621628    -3.660969
H     4.486493    -2.349435     5.605353
O     4.145475    -2.817288     6.397919
H     4.477141    -3.723040     6.310491
H    -0.659491     6.310820     5.099942
O    -1.251469     6.882199     5.649922
H    -1.277307     7.770415     5.222445
H     4.712639    -0.156708    -1.473472
O     3.945546     0.390199    -1.727867
H     3.248738    -0.205902    -2.057022
H    -0.725806     4.539129    -3.984737
O    -1.507620     5.086491    -4.184504
H    -1.349563     5.950537    -3.759261
H     0.679878     3.206154    -2.621774
O     0.682807     3.587834    -3.528117
H     0.723062     2.827395    -4.118096
H    -5.369266    -5.188555     1.827153
O    -4.677361    -5.784009     1.464013
H    -3.833334    -5.373296     1.731515
H     7.871939    -1.711254    -4.069735
O     7.621207    -1.401444    -3.166840
H     7.136981    -0.554823    -3.315972
H     3.669249    -5.068958    -5.315996
O     4.436275    -4.701040    -4.837975
H     4.821542    -5.416545    -4.298590
H    -3.727996     0.000642     4.984625
O    -4.320885     0.464657     5.624568
H    -4.982447    -0.192016     5.917333
H     3.460031    -5.962592    -0.548163
O     4.331532    -5.717424    -0.870833
H     4.413033    -4.756249    -0.722840
H     4.996003    -0.344158    -4.170547
O     4.454757    -1.050944    -4.560479
H     4.131278    -1.636977    -3.843616
H    -1.167745     1.588811    -3.896487
O    -1.817825     2.214782    -4.273985
H    -1.464910     2.548721    -5.121415
H     4.866997    -6.339236    -2.355471
O     5.192824    -6.660842    -3.224977
H     6.009819    -7.146514    -3.046167
H     8.723398    -5.122399    -2.977762
O     8.033798    -5.539994    -2.417219
H     8.063892    -6.496940    -2.524298
H     2.385133     4.699998     0.484908
O     1.811867     4.679746     1.260642
H     1.450715     3.760557     1.334457
H    -4.374768    -2.646231     4.271362
O    -5.268472    -2.301210     4.077163
H    -5.132087    -1.518245     3.504176
H    -5.826769    -3.185855     1.364100
O    -6.287425    -3.744359     2.032626
H    -6.091835    -3.314321     2.884220
H     1.752578     3.412387     6.903483
O     1.118166     3.937606     6.390316
H     0.349733     4.085149     6.968837
H     5.039640    -2.217473     3.596388
O     5.067142    -1.502372     4.263834
H     4.256805    -0.942366     4.115261
H     2.422475    -5.620021     4.818593
O     2.797417    -6.503645     4.551191
H     2.049137    -7.081657     4.379316
H     2.217059    -4.499131    -6.803842
O     2.051288    -4.990833    -5.989522
H     1.793932    -4.301955    -5.328867
H     6.442991    -4.136242    -0.542983
O     7.197535    -4.544546    -0.086559
H     7.698304    -4.966008    -0.812671
H    -1.614601     4.487314     7.740651
O    -0.773081     4.620384     8.240991
H    -0.520756     5.565911     8.164267
H    -5.107827     5.735528    -5.508927
O    -4.503152     4.969895    -5.536523
H    -3.749230     5.183759    -6.107128
H     3.238857    -2.506665    -8.446981
O     3.154076    -3.042511    -7.647473
H     4.033732    -3.024522    -7.224581
H    -0.614834     8.833213    -2.204933
O    -0.484915     9.658293    -1.682282
H     0.281174     9.478145    -1.112566
H     2.120955    -0.956512     5.217533
O     1.546880    -1.480989     5.804857
H     1.650511    -1.143874     6.704064
H     5.183190    -2.025704    -5.713406
O     5.522736    -2.790751    -6.241433
H     5.249024    -3.582187    -5.726054
H     5.728185    -5.270814     4.645859
O     5.211448    -5.187030     5.476137
H     4.487551    -5.816609     5.393037
H    -3.896428     1.126203     7.063011
O    -3.696143     1.608905     7.900956
H    -4.573818     1.984329     8.172102
H    -1.792556     9.618050    -0.659881
O    -2.649733     9.493036    -0.179138
H    -3.261488     10.124992    -0.560496
H    -5.924380     4.721329    -2.850901
O    -6.835802     4.607791    -3.189458
H    -6.752954     3.908485    -3.870716
H     0.080957    -7.067289    -1.155327
O     0.548445    -7.508501    -0.412790
H    -0.127228    -7.704350     0.239413
H    -7.610902     3.825341    -1.879079
O    -7.868814     3.235737    -1.139878
H    -7.732829     2.328148    -1.485338
H     4.038861    -0.950481     6.981232
O     4.050692     0.013722     6.973282
H     4.863377     0.300911     6.540506
H     2.298489     5.784225    -1.141529
O     3.233333     5.486882    -1.033955
H     3.402958     4.950388    -1.831285
H     6.553604    -5.969109     0.622723
O     6.185358    -6.706497     1.155150
H     5.283620    -6.426664     1.389547
H    -3.830110     4.611545     7.849535
O    -3.226047     4.229115     7.170017
H    -3.433310     3.278229     7.203922
H     5.753153    -7.979105     0.083920
O     5.458075    -8.661826    -0.554983
H     4.627706    -8.330885    -0.942096
H    -0.475032     1.989511     7.737520
O    -1.113925     1.961693     7.003088
H    -1.978772     1.797895     7.399703
H    -6.353518    -0.108041     1.129359
O    -6.679192    -0.185092     0.217971
H    -7.598827    -0.452682     0.239547
H    -5.364809    -3.046439    -0.542831
O    -5.105627    -2.347808     0.084233
H    -5.674041    -1.572109    -0.096333
H     4.367572     5.549119     0.343383
O     4.707096     5.643829     1.247176
H     4.017876     6.155439     1.705775
H    -9.042602    -1.702954    -2.177057
O    -8.488520    -1.507853    -1.393718
H    -8.614759    -2.247314    -0.759062
H    -5.523239     3.514210    -5.448776
O    -6.040694     2.803830    -5.033740
H    -5.373852     2.213318    -4.627743
H     3.162426    -0.881573    -5.656231
O     2.302871    -0.995587    -6.116817
H     2.381753    -1.842558    -6.595110
H     8.092015    -1.361949    -6.065379
O     8.099500    -2.228056    -5.612964
H     7.240146    -2.623401    -5.859992
H     7.606130     0.982003    -6.331385
O     7.410836     0.136478    -6.747320
H     6.429096     0.090745    -6.777373
H    -7.846608    -3.672245     0.988482
O    -8.528659    -3.558533     0.308893
H    -8.438147    -4.315569    -0.297028
H    -2.339244     8.732779     1.378881
O    -2.183257     8.141702     2.128942
H    -1.418790     7.585291     1.895579
H    -4.372272     6.432868     3.586413
O    -4.543363     6.859097     2.729737
H    -3.779393     7.443584     2.588753
H     3.414902     3.441986    -3.558132
O     3.266053     4.411352    -3.458204
H     2.300856     4.480395    -3.560079
H    -6.122140    -1.570313    -3.384589
O    -6.201827    -2.152722    -2.602624
H    -6.981606    -1.845279    -2.087669
H     6.526279     0.990446     4.726412
O     6.137300     1.527491     5.433574
H     6.329871     2.446624     5.147549
H     1.353226     1.737397    -5.798543
O     1.161457     1.138816    -5.045684
H     1.519341     0.275501    -5.322286
H    -2.337521     2.849049     10.578956
O    -2.171261     1.947139     10.266949
H    -2.786543     1.798905     9.536489
H     7.668841    -0.552872     3.054538
O     6.922127     0.024769     3.231349
H     6.230349    -0.575136     3.612271
H    -5.674545    -8.034683    -0.678725
O    -4.935429    -8.109444    -0.037836
H    -4.932573    -7.294977     0.488464
H    -5.186289    -0.080983    -4.656621
O    -5.807887    -0.789061    -4.895511
H    -6.645575    -0.343076    -5.085808
H     1.862050    -0.176975    -7.503933
O     1.656779     0.300063    -8.344017
H     2.227141    -0.104429    -9.003109
H     4.827162    -1.375542    -9.318829
O     3.901088    -1.141363    -9.593602
H     3.873928    -1.254867    -10.543008
H     7.604318    -2.631792     4.160897
O     7.743574    -2.662837     3.200096
H     7.246262    -3.451083     2.927816
H     6.737082    -5.944574     2.634898
O     6.806171    -5.272797     3.338629
H     7.684426    -5.363600     3.750380
H    -1.743805     8.932082     3.585720
O    -1.482573     9.225740     4.483318
H    -2.325813     9.343210     4.965520
H    -7.395575     1.617445    -5.168503
O    -7.971555     0.874476    -4.922716
H    -8.871247     1.277245    -4.839060
H     6.888496    -1.078587    -8.431325
O     6.301497    -1.795717    -8.694463
H     6.077594    -2.248920    -7.863257
H    -1.674257     6.275267    -6.955951
O    -2.073825     5.450439    -6.683522
H    -1.819509     5.313841    -5.722362
H     0.135701     3.261064     9.094310
O     0.282538     2.323815     9.295690
H    -0.508543     2.069320     9.822352
H     6.749404    -2.802732    -2.739238
O     6.217955    -3.546358    -2.398404
H     6.681357    -4.357951    -2.652035
H    -4.100454    -3.038588    -4.906530
O    -4.260313    -2.920411    -5.869719
H    -4.805121    -2.125187    -5.918406
H     2.074697     2.121482     8.492581
O     2.720988     2.238222     7.787134
H     3.148433     1.370743     7.667284
H    -6.915946    -5.172738    -1.350138
O    -7.834259    -5.437199    -1.590690
H    -7.972221    -5.029969    -2.470816
H    -3.745762     5.233279     5.772874
O    -3.721913     6.005149     5.188042
H    -2.790666     6.301642     5.263989
H    -7.874596     0.123664    -1.888062
O    -7.384467     0.847338    -2.301087
H    -7.619208     0.842032    -3.252880
H     5.863382     0.095955     0.398484
O     5.648266     0.814960     1.024815
H     6.163791     0.613482     1.832953
H    -6.137413     3.284745     7.477620
O    -6.006745     2.756554     8.299282
H    -6.611528     1.998516     8.211129
H     2.261165    -8.086846    -0.873121
O     2.933399    -8.073387    -1.573935
H     2.701601    -8.783636    -2.188953
H    -2.779859    -3.926659    -6.173259
O    -2.026936    -4.497023    -5.949405
H    -1.743548    -4.211279    -5.052613
H    -5.568520     3.754147     5.390441
O    -6.205771     4.150810     6.019332
H    -6.050097     5.096037     5.994197
H    -1.046772    -7.101888    -3.166099
O    -0.567985    -6.436532    -2.637936
H     0.337219    -6.369234    -3.024649
H     4.509805     1.966361     5.132192
O     3.568207     2.211942     5.021619
H     3.191643     2.220833     5.906831
H     4.195985     4.603069     6.322278
O     4.270086     5.336241     5.706966
H     3.698326     5.098894     4.938672
H     2.830605     3.577917     3.947240
O     2.649501     4.518751     3.788304
H     2.528905     4.623428     2.822272
H     9.410088     0.169136    -1.107875
O     8.607815     0.332752    -0.608460
H     8.432158    -0.487816    -0.118123
H    -1.727794     4.768132     9.847354
O    -2.350478     4.689306     10.597810
H    -2.582458     5.610959     10.828947
H     7.985331    -3.052425     0.284108
O     8.411339    -2.208569     0.540553
H     8.352489    -2.208419     1.503332
H     5.432675     3.617840     3.531907
O     6.093692     3.877288     4.195776
H     5.688672     4.595948     4.702375
H    -4.024829     4.616988     9.841725
O    -4.763606     4.929269     9.272427
H    -5.389697     4.188470     9.208061
H    -7.025671    -3.438495    -3.430188
O    -7.651845    -4.045382    -3.877311
H    -7.137543    -4.486305    -4.585190
H    -2.023556     9.725682     8.798971
O    -2.212602     8.796671     8.635880
H    -1.338600     8.387637     8.456748
H     2.591088     1.497336    -4.090458
O     3.472336     1.845561    -3.855549
H     3.795824     1.325070    -3.090081
H    -6.904118    -0.233853     7.289157
O    -7.408331     0.545603     7.574683
H    -8.036584     0.733053     6.876277
H    -2.767164    -9.864881    -0.834645
O    -2.701090    -8.922713    -0.990217
H    -3.603860    -8.553701    -0.741788
H    -10.065450     3.135805    -4.789754
O    -10.184141     2.217410    -4.512774
H    -10.393491     2.297521    -3.561292
H    -2.026502    -3.045602     4.638148
O    -2.903180    -3.481421     4.711429
H    -2.904800    -4.096187     3.952564
H    -0.172055    -8.001474     2.472954
O     0.658187    -7.795760     2.915849
H     1.371267    -8.092371     2.323056
H     6.761906    -2.442761     6.361365
O     7.204559    -3.151611     5.890008
H     6.571681    -3.884025     5.853117
H    -5.211128    -2.021038     6.995187
O    -5.886990    -1.516266     6.517566
H    -5.879980    -1.890364     5.607027
H     0.824163     3.056462    -7.080414
O     1.739962     2.722013    -7.144018
H     1.718913     1.977620    -7.773421
H    -3.284699     8.702331     6.822260
O    -3.702945     8.772997     5.951399
H    -3.876585     7.853926     5.683533
H    -2.011164     10.329339    -2.648420
O    -2.914546     10.516029    -2.941724
H    -2.846286     11.152510    -3.652724
H     9.443678    -4.128209     3.986086
O     9.164482    -4.808193     4.606856
H     8.742670    -4.337607     5.336634
H    -0.776711    -5.972500    -5.839710
O    -0.073590    -6.543557    -5.513305
H     0.762508    -6.084880    -5.734586
H     1.889656     8.257093     0.716483
O     1.580836     8.584618    -0.156828
H     2.391421     8.621459    -0.693723
H     3.488811     2.939905    -6.646629
O     4.317996     2.644688    -6.244183
H     4.077765     2.367332    -5.335105
H     3.778495     7.107457    -1.195663
O     3.986625     8.043477    -1.405486
H     4.349644     7.990404    -2.301581
H     4.364735     0.004915    -7.916212
O     4.748133     0.145653    -7.048632
H     4.572156     1.077213    -6.799711
H     6.058794     1.901998    -0.481342
O     6.619524     2.096964    -1.245995
H     7.443371     1.612636    -1.060518
H     6.659791    -8.459588    -1.667816
O     7.291331    -8.247970    -2.407870
H     7.652209    -9.082367    -2.702620
H    -5.339570    -5.746250    -5.374415
O    -5.955923    -5.069924    -5.681420
H    -5.403053    -4.303147    -5.918681
H     0.799293     7.224466     7.571966
O    -0.127554     7.205400     7.871813
H    -0.608333     7.120045     6.996449
H    -8.914381    -2.782483    -4.030140
O    -9.429709    -1.972317    -3.854996
H    -9.145567    -1.306003    -4.484471
H    -2.427217    -5.974530    -2.131012
O    -3.305733    -5.682660    -2.392339
H    -3.500725    -6.052528    -3.278478
H    -3.025324    -5.867665    -5.392558
O    -3.624559    -6.476906    -4.918856
H    -3.145247    -7.300199    -4.759661
H    -1.399068     3.759443    -6.930277
O    -0.860233     3.000262    -6.666233
H    -1.103872     2.218687    -7.218392
H    -0.234942     0.451355    -8.187309
O    -1.127830     0.689391    -7.896359
H    -1.300091     0.162295    -7.100121
H    -10.401065     4.104256    -2.618308
O    -10.467731     3.323130    -2.053460
H    -9.635282     3.291046    -1.550143
H     4.632743     4.044973     1.734210
O     4.421742     3.124336     2.011888
H     5.131902     2.545496     1.721978
H     6.485928     1.383916    -4.231545
O     6.184653     0.758006    -3.538386
H     6.223848     1.249209    -2.692509
H     9.640015    -2.269891    -0.980391
O     9.911392    -2.051852    -1.880887
H     9.109402    -1.707940    -2.317257
H     9.957072    -3.355497    -3.157053
O     9.682351    -4.003115    -3.833129
H     9.286226    -3.490406    -4.548422
H    -7.723056    -8.540467    -1.630289
O    -6.983792    -7.948307    -1.760555
H    -7.357790    -7.033935    -1.743706
H     4.183698     6.074853    -3.794746
O     4.848054     6.772965    -3.709461
H     5.683505     6.314854    -3.581507
H     0.050234    -8.152193    -5.230699
O     0.070704    -9.135780    -5.103715
H     0.213595    -9.496044    -5.979005
H    -2.365241    -8.657133    -2.716916
O    -2.136366    -8.389495    -3.626605
H    -1.495244    -9.009143    -3.993137
H     2.136784    -10.815334    -3.538186
O     2.094639    -9.860746    -3.508774
H     1.306800    -9.584237    -4.028319
H     6.841859     3.316935    -4.579928
O     6.892142     2.641598    -5.284063
H     6.095725     2.780640    -5.818921
H    -3.505848    -3.749849     7.753208
O    -3.618019    -2.958975     7.227241
H    -3.375253    -3.196064     6.306146
H    -0.674739    -3.333598    -6.711063
O    -0.041500    -2.604739    -6.719141
H    -0.517794    -1.828938    -6.370795
H     0.727933     0.397434     8.781851
O     0.723172    -0.302090     8.125341
H    -0.200365    -0.589998     8.048959
H    -5.808958     7.407206    -4.150820
O    -6.317940     6.793013    -4.711427
H    -6.604341     6.060615    -4.121805
H    -4.239539     9.131183    -3.164776
O    -4.777612     8.336634    -3.058649
H    -4.366178     7.851840    -2.324964
H    -9.695794     5.854671    -4.526037
O    -10.231188     5.051348    -4.362589
H    -11.113172     5.257246    -4.674333
H     2.859084     6.469907     6.174742
O     1.900421     6.577000     6.275354
H     1.547598     5.668382     6.180951
H     4.863251     8.520011     0.117456
O     5.185192     8.514483     1.036894
H     5.592026     7.648984     1.159999
H     4.104568    -7.429103    -4.381644
O     3.341465    -7.707748    -4.920077
H     3.060314    -8.549557    -4.546487
H     0.464419     8.631865     4.297214
O     1.137972     7.985357     4.061881
H     1.374020     7.488683     4.872235
H     5.254464     4.177250    -3.148019
O     6.216104     4.143758    -3.101480
H     6.427857     3.557399    -2.358304
H    -2.509878    -1.575569     7.608248
O    -1.996936    -0.781344     7.819348
H    -2.613668    -0.162198     8.218662
H    -8.999453     7.989455    -4.020938
O    -8.943899     7.407920    -4.780659
H    -7.988533     7.240818    -4.923565
H     3.522402    -9.006891     1.047908
O     2.850323    -8.373167     1.304158
H     3.330460    -7.571509     1.585024
H     3.655539     8.140027     1.866818
O     2.862877     7.580071     1.984379
H     2.425139     7.815256     2.814832
N    -3.454274     7.231508     10.703292
H    -3.036747     7.822293     10.049660
H    -4.243996     6.900752     10.254513
