603

H     0.185007     3.035331    -0.671837
O     0.709329     2.364765    -1.161806
H     1.647941     2.498184    -0.890774
H    -0.079787    -1.306282     3.157203
O     0.310814    -0.605001     2.613264
H    -0.167972     0.207622     2.846822
H    -2.411214     2.411811    -0.528170
O    -2.204871     1.940762     0.296964
H    -2.213680     0.993140     0.070424
H    -4.667967     0.537566     2.194919
O    -4.986842    -0.395218     2.204374
H    -4.481143    -0.871398     1.537521
H     0.057395    -0.305005     0.957590
O    -0.143820    -0.068204     0.031739
H     0.196259     0.828164    -0.090915
H    -0.153736    -3.576705     3.782163
O    -0.434013    -2.747750     4.204070
H     0.212791    -2.576687     4.905108
H    -4.905190     2.500664     1.350301
O    -4.252335     2.111443     1.963628
H    -3.414340     2.096216     1.441708
H    -3.256162     3.932815    -2.197192
O    -2.543583     3.303467    -1.970771
H    -2.179184     3.022330    -2.829741
H    -0.126268    -3.802093     0.507352
O     0.212413    -2.984562     0.926115
H    -0.575596    -2.499409     1.238073
H    -2.381986    -1.541295     2.476425
O    -2.193240    -2.006637     1.635349
H    -2.451933    -1.419332     0.905937
H     2.066240    -1.435457    -1.117060
O     2.298861    -1.688766    -0.199845
H     1.510637    -2.118058     0.183966
H    -1.398839     1.823668     1.919878
O    -1.493240     1.425148     2.795330
H    -1.476602     2.135997     3.461346
H     0.204047    -2.698438    -1.565405
O    -0.553432    -2.089001    -1.618217
H    -0.374609    -1.361612    -0.985216
H    -3.440089    -2.927693    -0.384527
O    -2.722496    -3.418892    -0.805599
H    -2.013469    -2.787060    -1.024681
H     2.765840     0.134431     2.938321
O     2.865315    -0.048422     3.900104
H     2.955971     0.844385     4.304951
H    -3.154523     6.205742    -0.275359
O    -3.073122     6.809798    -1.049599
H    -3.010155     7.717368    -0.703749
H     3.892620     0.593355     1.190166
O     2.942777     0.408761     1.307685
H     2.706528    -0.342727     0.726709
H    -5.792770     0.832094    -1.597218
O    -4.883114     1.160753    -1.469559
H    -4.997819     1.984172    -0.952118
H    -1.229483     5.394854     2.216751
O    -1.854214     4.643434     2.118073
H    -1.908755     4.224963     2.982439
H     3.479904     2.772165     0.431620
O     3.231446     2.729147    -0.507160
H     3.565460     1.887742    -0.858849
H     1.489395    -4.689428    -2.248918
O     1.552999    -3.912809    -1.674841
H     2.346358    -3.449646    -2.026273
H    -0.932522    -0.080609    -2.541052
O    -0.298101     0.571403    -2.865248
H    -0.038645     1.155369    -2.129074
H     1.698917    -4.679254    -0.177509
O     1.807191    -5.316628     0.564764
H     1.345225    -6.128409     0.268263
H    -1.231204    -3.262042    -2.875454
O    -1.057679    -3.945174    -3.536496
H    -0.929086    -4.791941    -3.067946
H    -2.793178     3.301643     4.717323
O    -1.812265     3.302644     4.681919
H    -1.516413     2.899713     5.516627
H     0.947985     5.038094     4.084584
O     0.001143     5.266409     4.144448
H    -0.465168     4.459870     4.400849
H    -1.731032    -4.650374    -0.367506
O    -0.964840    -5.190091    -0.083336
H    -1.310852    -5.878000     0.494556
H    -3.935806     5.884083    -2.540665
O    -4.280350     5.039017    -2.875319
H    -4.089327     5.004361    -3.834038
H    -2.431474    -3.692168     1.941277
O    -2.448154    -4.596442     2.317024
H    -1.507786    -4.833123     2.456236
H    -4.701022    -2.983113    -2.891421
O    -3.848842    -3.214327    -3.298783
H    -3.515645    -4.007313    -2.834133
H     0.331437     1.376611     4.622990
O     0.833041     2.139372     4.288783
H     0.884887     2.796384     4.997097
H    -4.655925    -5.173810    -1.565420
O    -5.358013    -4.822300    -0.990721
H    -5.143325    -5.177137    -0.107140
H     2.326060    -6.471203    -4.040091
O     1.989022    -6.144112    -3.185947
H     2.425323    -6.717436    -2.523551
H     0.460748    -3.371996    -4.002488
O     1.262751    -3.003902    -4.425829
H     0.942177    -2.631473    -5.273576
H     1.960663    -1.748442     2.985037
O     2.116928    -2.679141     2.767645
H     1.431264    -2.893335     2.100585
H    -3.023353    -1.808318    -3.202933
O    -2.602685    -0.921478    -3.136399
H    -3.258517    -0.276047    -3.456292
H    -3.235299     4.833208     1.337507
O    -4.019882     5.219974     0.887563
H    -4.362674     5.816040     1.605168
H     0.865866     2.256145     2.598524
O     0.964028     2.251566     1.627335
H     1.692673     1.631023     1.460962
H     0.164195     5.663959    -0.752891
O     0.701518     6.318932    -1.253311
H     0.826863     7.124182    -0.702837
H     0.323173     7.035810     2.604631
O    -0.045667     6.649662     1.793078
H     0.623729     5.988982     1.519843
H    -2.487008     0.211434     3.349255
O    -2.707811    -0.602551     3.854696
H    -1.946123    -0.642013     4.474987
H    -0.899472     0.550028     6.033471
O    -0.625483     0.032422     5.257993
H     0.089903    -0.569979     5.542783
H     0.710950    -4.991164     1.982201
O     0.169551    -5.102493     2.787061
H     0.316379    -6.023030     3.058272
H    -2.112866    -8.089165     0.449817
O    -1.790914    -7.601428     1.235346
H    -2.577484    -7.291789     1.691995
H    -0.370720     6.871395    -2.347664
O    -1.112150     7.294765    -2.847508
H    -1.892549     7.145302    -2.275023
H    -1.135812     4.312179     0.581677
O    -0.756842     4.364767    -0.311287
H    -1.465169     4.140723    -0.948009
H    -4.418963     2.736362     3.520012
O    -4.422152     2.910205     4.484281
H    -4.500178     2.026683     4.893921
H     2.024499    -3.578900     4.246200
O     1.962091    -4.051656     5.099287
H     2.469466    -3.514865     5.729594
H     4.684956    -3.183955     0.839064
O     4.523416    -3.108191    -0.127170
H     3.663731    -2.632057    -0.209652
H    -2.730849    -0.749044    -1.343708
O    -3.058710    -0.481059    -0.468742
H    -3.859969     0.043614    -0.675812
H    -1.627893    -0.756261    -4.624298
O    -1.121582    -0.540428    -5.428504
H    -0.413732     0.058986    -5.144211
H     1.786019    -1.705790    -3.373844
O     1.877299    -0.960081    -2.749380
H     1.099158    -0.383474    -2.879771
H     3.661372    -3.114652     2.551515
O     4.620791    -3.341810     2.477733
H     4.677331    -4.301985     2.603398
H     3.430276    -6.114652     3.122012
O     3.784782    -5.912655     2.221665
H     3.046271    -5.567804     1.679581
H    -3.358544     1.611465    -4.169993
O    -4.202139     1.137784    -3.978619
H    -4.418436     1.284158    -3.022344
H    -5.225630     4.073460     0.180679
O    -5.643993     3.208055     0.031147
H    -6.578490     3.295977    -0.259236
H     6.725683    -1.166422    -1.363335
O     5.954167    -1.018929    -0.809931
H     5.536607    -1.887506    -0.613396
H     4.587958    -3.156254    -2.470480
O     3.719270    -2.986475    -2.885291
H     3.723145    -3.604208    -3.642260
H     4.433938    -2.287150     5.622543
O     4.092429    -2.753957     6.415648
H     4.429311    -3.658206     6.333001
H    -0.773054     6.334505     5.088023
O    -1.374484     6.909313     5.622970
H    -1.383367     7.787321     5.183464
H     4.688172    -0.124759    -1.464166
O     3.919518     0.416396    -1.725446
H     3.227850    -0.184763    -2.056121
H    -0.764450     4.530960    -4.027632
O    -1.550450     5.068057    -4.235572
H    -1.402774     5.936736    -3.812913
H     0.642983     3.210073    -2.650062
O     0.650985     3.586406    -3.558179
H     0.696429     2.823632    -4.144488
H    -5.382379    -5.201244     1.800907
O    -4.684966    -5.794436     1.444701
H    -3.844880    -5.377222     1.714822
H     7.871251    -1.670828    -4.035717
O     7.613793    -1.358841    -3.135531
H     7.125284    -0.515581    -3.291000
H     3.695664    -5.058931    -5.291140
O     4.458081    -4.684854    -4.810495
H     4.844079    -5.395664    -4.265589
H    -3.789290     0.012170     4.944242
O    -4.390660     0.474910     5.577705
H    -5.048974    -0.185114     5.869657
H     3.464577    -5.933042    -0.520952
O     4.336759    -5.684374    -0.839064
H     4.411505    -4.721938    -0.695070
H     4.987720    -0.320964    -4.159178
O     4.453995    -1.033661    -4.548892
H     4.129039    -1.617422    -3.830989
H    -1.187518     1.577302    -3.928360
O    -1.841153     2.194661    -4.313071
H    -1.485122     2.530536    -5.158296
H     4.884192    -6.309145    -2.317843
O     5.216649    -6.633231    -3.183972
H     6.035820    -7.112568    -2.998391
H     8.736879    -5.071888    -2.923755
O     8.046929    -5.491380    -2.365026
H     8.083136    -6.448527    -2.468009
H     2.318789     4.729236     0.458612
O     1.743143     4.707375     1.232583
H     1.385777     3.787161     1.306410
H    -4.416952    -2.642393     4.239690
O    -5.311713    -2.303784     4.038948
H    -5.176545    -1.522691     3.462889
H    -5.849414    -3.203736     1.326235
O    -6.310778    -3.761785     1.994818
H    -6.121887    -3.326839     2.845466
H     1.676927     3.469246     6.870356
O     1.051963     3.983982     6.338030
H     0.269282     4.134654     6.910141
H     4.997831    -2.160228     3.616518
O     5.017412    -1.442568     4.281361
H     4.204659    -0.887438     4.125388
H     2.394383    -5.572863     4.838682
O     2.775826    -6.455876     4.577985
H     2.031753    -7.038586     4.403755
H     2.248919    -4.504743    -6.789468
O     2.081351    -4.993937    -5.973980
H     1.815920    -4.303432    -5.317999
H     6.436564    -4.088943    -0.506064
O     7.190729    -4.491185    -0.043599
H     7.698236    -4.912393    -0.765133
H    -1.739045     4.487799     7.708596
O    -0.841339     4.585040     8.096095
H    -0.659496     5.543944     8.121122
H    -5.139632     5.703333    -5.569088
O    -4.540605     4.935790    -5.588645
H    -3.786547     5.142752    -6.160935
H     3.268050    -2.513374    -8.435538
O     3.182468    -3.047180    -7.634740
H     4.059320    -3.020905    -7.206519
H    -0.692376     8.828259    -2.274809
O    -0.584576     9.655675    -1.747958
H     0.177761     9.487037    -1.171035
H     2.062553    -0.909501     5.214746
O     1.490790    -1.436057     5.802697
H     1.586214    -1.091755     6.700069
H     5.194159    -2.008478    -5.693195
O     5.541301    -2.773880    -6.215958
H     5.269192    -3.564557    -5.698698
H     5.698420    -5.205203     4.683636
O     5.176793    -5.121748     5.510900
H     4.456410    -5.755050     5.425497
H    -3.979640     1.139318     7.017425
O    -3.787640     1.617071     7.860287
H    -4.664330     1.999494     8.122624
H    -1.812229     9.608343    -0.770518
O    -2.638745     9.441348    -0.242010
H    -3.272725     10.082731    -0.574905
H    -5.984923     4.628458    -2.893720
O    -6.883163     4.492443    -3.268339
H    -6.745402     3.765181    -3.917837
H     0.095767    -7.060577    -1.142030
O     0.561406    -7.496205    -0.395007
H    -0.116858    -7.692575     0.254328
H    -7.647711     3.782078    -1.965046
O    -7.918122     3.196549    -1.225039
H    -7.774546     2.286586    -1.563162
H     3.971255    -0.886875     6.988307
O     3.977990     0.077321     6.980385
H     4.789039     0.369200     6.547660
H     2.238330     5.804348    -1.167860
O     3.176071     5.512289    -1.056387
H     3.350687     4.974215    -1.851115
H     6.551360    -5.915963     0.668186
O     6.184604    -6.653260     1.201905
H     5.279739    -6.377915     1.429528
H    -3.882732     4.725221     7.789259
O    -3.319697     4.266890     7.124309
H    -3.504674     3.322154     7.239020
H     5.766163    -7.932930     0.133741
O     5.478850    -8.620417    -0.503637
H     4.648858    -8.296032    -0.897114
H    -0.564152     2.039292     7.701059
O    -1.198475     1.975372     6.966865
H    -2.066010     1.830844     7.364381
H    -6.391638    -0.131718     1.074476
O    -6.714065    -0.211979     0.162077
H    -7.631066    -0.488441     0.180878
H    -5.376979    -3.069856    -0.579008
O    -5.126790    -2.367254     0.047213
H    -5.697296    -1.595165    -0.141369
H     4.297763     5.588007     0.325754
O     4.632927     5.687728     1.230939
H     3.938501     6.197593     1.683834
H    -9.053221    -1.755591    -2.240259
O    -8.505819    -1.553160    -1.454086
H    -8.630481    -2.291107    -0.817365
H    -5.543896     3.476917    -5.506478
O    -6.060416     2.760880    -5.097549
H    -5.391819     2.174084    -4.689313
H     3.166423    -0.876498    -5.652751
O     2.310286    -0.998400    -6.117582
H     2.397047    -1.846773    -6.591762
H     8.100584    -1.328872    -6.031413
O     8.110966    -2.193213    -5.575565
H     7.255147    -2.594434    -5.825481
H     7.602306     1.010715    -6.310534
O     7.414727     0.162196    -6.724000
H     6.433382     0.110581    -6.759509
H    -7.863746    -3.703555     0.940859
O    -8.543067    -3.597171     0.257301
H    -8.444038    -4.355961    -0.345143
H    -2.271003     8.765593     1.350676
O    -2.187847     8.125780     2.078976
H    -1.397065     7.585054     1.879883
H    -4.450013     6.555427     3.627253
O    -4.612917     6.984129     2.763399
H    -3.766857     7.444997     2.585823
H     3.381042     3.457827    -3.572587
O     3.227344     4.426643    -3.478156
H     2.262137     4.490861    -3.584125
H    -6.126202    -1.610696    -3.431659
O    -6.207942    -2.190123    -2.647492
H    -6.992013    -1.884428    -2.138441
H     6.459574     1.061437     4.740563
O     6.065174     1.598934     5.444308
H     6.250933     2.518178     5.153388
H     1.341669     1.731254    -5.816666
O     1.149422     1.133972    -5.062855
H     1.514489     0.272074    -5.333812
H    -2.495896     2.957328     10.494118
O    -2.282468     2.050198     10.220303
H    -2.880073     1.849966     9.488012
H     7.620625    -0.483306     3.082162
O     6.869803     0.090851     3.252565
H     6.178961    -0.510998     3.631953
H    -5.656443    -8.060100    -0.693944
O    -4.921017    -8.128004    -0.048133
H    -4.925506    -7.310883     0.474069
H    -5.191764    -0.121500    -4.704499
O    -5.808643    -0.834155    -4.942894
H    -6.646988    -0.393159    -5.141412
H     1.871928    -0.187795    -7.510911
O     1.668861     0.283458    -8.354674
H     2.245943    -0.120453    -9.008188
H     4.854941    -1.376709    -9.303374
O     3.929012    -1.149830    -9.584574
H     3.908231    -1.266388    -10.533748
H     7.561561    -2.557008     4.197630
O     7.707583    -2.592296     3.238013
H     7.215365    -3.383817     2.966071
H     6.722804    -5.881607     2.681217
O     6.783922    -5.206898     3.382914
H     7.660483    -5.290483     3.799606
H    -1.834601     8.956580     3.500386
O    -1.598108     9.249585     4.404752
H    -2.449642     9.383854     4.854145
H    -7.407620     1.564111    -5.235185
O    -7.980432     0.818155    -4.990346
H    -8.883238     1.214766    -4.915129
H     6.908844    -1.062876    -8.405463
O     6.328519    -1.785306    -8.668961
H     6.101957    -2.235633    -7.836895
H    -1.708126     6.245864    -7.008697
O    -2.100582     5.416756    -6.738707
H    -1.855581     5.288164    -5.773079
H    -0.007515     3.310054     9.031856
O     0.191133     2.390574     9.286056
H    -0.606121     2.124586     9.793179
H     6.747575    -2.763071    -2.706765
O     6.218999    -3.508574    -2.365430
H     6.688587    -4.318330    -2.613248
H    -4.087790    -3.073351    -4.935134
O    -4.243648    -2.960984    -5.899686
H    -4.791424    -2.168249    -5.955171
H     1.973821     2.185339     8.471716
O     2.636223     2.300001     7.780707
H     3.060570     1.430914     7.663951
H    -6.910904    -5.208890    -1.385365
O    -7.826394    -5.479598    -1.630053
H    -7.961313    -5.077084    -2.512864
H    -3.853765     5.264494     5.687914
O    -3.816844     6.032347     5.096065
H    -2.881027     6.321213     5.199188
H    -7.898337     0.079303    -1.952019
O    -7.412506     0.806369    -2.364186
H    -7.638586     0.794808    -3.318145
H     5.826851     0.143618     0.412890
O     5.603971     0.864163     1.034534
H     6.115616     0.669864     1.846687
H    -6.228093     3.299592     7.408813
O    -6.097045     2.783161     8.237714
H    -6.694315     2.019205     8.151067
H     2.280051    -8.065748    -0.842737
O     2.956625    -8.051807    -1.539356
H     2.732325    -8.765809    -2.152757
H    -2.754791    -3.959116    -6.190116
O    -2.000500    -4.524775    -5.959011
H    -1.723330    -4.232589    -5.062322
H    -5.656356     3.750612     5.324305
O    -6.309831     4.148239     5.936782
H    -6.136855     5.090592     5.937341
H    -1.020196    -7.110629    -3.159438
O    -0.548474    -6.440590    -2.630981
H     0.358478    -6.369118    -3.012836
H     4.435073     2.025842     5.131817
O     3.492675     2.263274     5.013571
H     3.109989     2.278115     5.896111
H     4.097062     4.665077     6.305489
O     4.173790     5.396848     5.688822
H     3.607105     5.154878     4.917564
H     2.751822     3.624761     3.928042
O     2.570761     4.564427     3.763648
H     2.451390     4.663732     2.796896
H     9.381301     0.231154    -1.073529
O     8.575872     0.392536    -0.578527
H     8.401591    -0.427067    -0.086180
H    -2.111126     5.316751     10.662226
O    -2.832660     4.687609     10.893412
H    -3.049343     4.862681     11.809421
H     7.967613    -2.992518     0.324907
O     8.387870    -2.145446     0.580080
H     8.322705    -2.140853     1.542420
H     5.357757     3.676567     3.527609
O     6.013012     3.941964     4.195091
H     5.600155     4.660532     4.695664
H    -4.219295     5.016699     9.797505
O    -4.854044     5.165478     9.076364
H    -5.463450     4.414811     9.075667
H    -7.019042    -3.484176    -3.473832
O    -7.639114    -4.096911    -3.921632
H    -7.117979    -4.537744    -4.624652
H     0.016238     6.128507     10.781182
O    -0.849032     6.458357     10.534223
H    -0.734273     6.889798     9.668295
H     2.571414     1.506177    -4.100628
O     3.450191     1.858899    -3.863350
H     3.771250     1.345267    -3.092463
H    -6.975281    -0.229663     7.234273
O    -7.485055     0.548229     7.514424
H    -8.110557     0.728378     6.811569
H    -2.737581    -9.873751    -0.825037
O    -2.676221    -8.931916    -0.984430
H    -3.582492    -8.567110    -0.742872
H    -10.089779     3.065325    -4.879466
O    -10.205909     2.147600    -4.599377
H    -10.420942     2.229888    -3.649528
H    -2.068833    -3.025954     4.621712
O    -2.943230    -3.467124     4.692074
H    -2.936687    -4.084711     3.935508
H    -0.172871    -7.980014     2.488627
O     0.653466    -7.768414     2.936060
H     1.371812    -8.062636     2.348456
H     6.705376    -2.363034     6.391445
O     7.155574    -3.072177     5.927683
H     6.526633    -3.807895     5.889444
H    -5.272722    -2.010538     6.955226
O    -5.950050    -1.512844     6.472277
H    -5.934212    -1.889696     5.562891
H     0.813165     3.041942    -7.106452
O     1.731207     2.711928    -7.164394
H     1.717034     1.965219    -7.790954
H    -3.964819     8.761294     6.685197
O    -3.980733     8.749222     5.728097
H    -4.092879     7.816119     5.473304
H    -2.108434     10.313902    -2.718951
O    -3.017549     10.483007    -3.007454
H    -2.962749     11.113632    -3.725352
H     9.410544    -4.043415     4.039744
O     9.132822    -4.722110     4.662615
H     8.703157    -4.250612     5.387219
H    -0.741519    -5.991597    -5.835751
O    -0.036757    -6.557155    -5.503323
H     0.797735    -6.094029    -5.721697
H     1.803353     8.281583     0.672931
O     1.495883     8.606080    -0.201308
H     2.307252     8.644975    -0.736241
H     3.475776     2.942681    -6.657967
O     4.304341     2.652914    -6.250150
H     4.060497     2.379418    -5.340824
H     3.708805     7.135705    -1.223721
O     3.915366     8.071700    -1.435801
H     4.281713     8.017052    -2.330309
H     4.375788     0.007865    -7.909585
O     4.754176     0.154004    -7.040720
H     4.570813     1.085498    -6.796089
H     6.015706     1.947878    -0.474264
O     6.580272     2.141670    -1.236369
H     7.405750     1.663383    -1.043135
H     6.685660    -8.415730    -1.610499
O     7.320480    -8.203838    -2.347673
H     7.687790    -9.037452    -2.636598
H    -5.308228    -5.790153    -5.397883
O    -5.927077    -5.119116    -5.711441
H    -5.377467    -4.349835    -5.948558
H     0.665968     7.176241     7.609364
O    -0.235574     7.202713     7.969370
H    -0.791909     7.216193     7.152880
H    -8.907835    -2.842478    -4.087258
O    -9.429271    -2.034703    -3.918958
H    -9.145040    -1.369518    -4.549596
H    -2.412963    -5.986793    -2.137083
O    -3.292281    -5.702540    -2.404081
H    -3.479575    -6.076523    -3.290137
H    -2.993602    -5.897596    -5.402022
O    -3.591850    -6.508825    -4.929410
H    -3.108212    -7.328312    -4.763933
H    -1.412534     3.734854    -6.969730
O    -0.871955     2.977251    -6.703115
H    -1.111483     2.193928    -7.253513
H    -0.224799     0.424966    -8.208867
O    -1.121541     0.657134    -7.925362
H    -1.293950     0.134698    -7.126151
H    -10.444279     4.040738    -2.717603
O    -10.510742     3.264559    -2.145898
H    -9.678469     3.237956    -1.642107
H     4.563264     4.092184     1.724186
O     4.358924     3.170745     2.005181
H     5.074354     2.596391     1.719727
H     6.467796     1.415079    -4.219153
O     6.167292     0.789875    -3.524951
H     6.197520     1.285501    -2.681220
H     9.624760    -2.205424    -0.933893
O     9.900100    -1.990303    -1.833895
H     9.098687    -1.652638    -2.276326
H     9.960633    -3.298797    -3.103814
O     9.694146    -3.951048    -3.778787
H     9.298627    -3.443810    -4.498338
H    -7.696930    -8.582118    -1.655410
O    -6.960252    -7.986358    -1.783796
H    -7.339463    -7.074024    -1.773305
H     4.135026     6.095259    -3.815364
O     4.796254     6.796603    -3.731958
H     5.632726     6.343070    -3.594993
H     0.094965    -8.163363    -5.212627
O     0.120524    -9.146347    -5.081240
H     0.270792    -9.509385    -5.954143
H    -2.331768    -8.671771    -2.710591
O    -2.099880    -8.407267    -3.620391
H    -1.452297    -9.024108    -3.980225
H     2.186835    -10.806949    -3.496327
O     2.139060    -9.852521    -3.471147
H     1.352862    -9.582627    -3.996662
H     6.813922     3.348199    -4.573783
O     6.872797     2.670313    -5.274985
H     6.078416     2.802294    -5.814712
H    -3.560868    -3.726836     7.730010
O    -3.677161    -2.938990     7.200448
H    -3.426405    -3.177284     6.281701
H    -0.650570    -3.355559    -6.718733
O    -0.020999    -2.623643    -6.726283
H    -0.503174    -1.848600    -6.384067
H     0.638833     0.463212     8.759588
O     0.646858    -0.250791     8.118213
H    -0.274763    -0.541782     8.031544
H    -5.901550     7.339262    -4.250242
O    -6.390133     6.716686    -4.819716
H    -6.654397     5.971364    -4.231944
H    -4.252133     9.072725    -3.087200
O    -4.887129     8.341574    -3.065520
H    -5.247146     8.330971    -2.162833
H    -9.737234     5.788608    -4.625489
O    -10.269773     4.983868    -4.459174
H    -11.149639     5.181055    -4.782358
H     2.752213     6.522573     6.147314
O     1.791981     6.617260     6.247310
H     1.450513     5.703312     6.143365
H     4.776862     8.560590     0.089510
O     5.096456     8.561588     1.009925
H     5.504880     7.697736     1.139043
H     4.139777    -7.412529    -4.343650
O     3.381701    -7.698630    -4.885271
H     3.103301    -8.540121    -4.508961
H     0.358559     8.665085     4.245141
O     1.034010     8.018785     4.016345
H     1.263373     7.527008     4.830821
H     5.213710     4.207247    -3.154994
O     6.175352     4.177322    -3.103899
H     6.385587     3.596787    -2.355825
H    -2.578054    -1.547376     7.582099
O    -2.069551    -0.752795     7.801699
H    -2.696185    -0.128670     8.177844
H    -9.064596     7.926071    -4.123109
O    -8.991345     7.345493    -4.882161
H    -8.032054     7.190167    -5.007336
H     3.535909    -8.969730     1.089172
O     2.858355    -8.339598     1.339781
H     3.331771    -7.533361     1.619178
H     3.562376     8.181354     1.835392
O     2.774703     7.614549     1.951819
H     2.328913     7.851753     2.777416
N    -5.878556     7.514695    -0.492273
H    -6.055196     7.798865     0.410268
H    -5.056301     7.007373    -0.422438
