12
Coordinates from ORCA-job grain_mol_opt.QMRegion
  H   3.18073207812787     -2.57932727331787     -8.41772033543692
  O   3.10309195100469     -3.07812011074797     -7.58634546964396
  H   3.98941256190563     -3.02876782998373     -7.18430679177176
  H   4.70197570954791     -1.30963978570626     -9.31739797160956
  O   3.78307123498234     -1.23915589324458     -9.65044878822047
  H   3.85348014325874     -1.65644469221917    -10.51630887237470
  H   6.93519658216767     -1.12210772109593     -8.35519331360993
  O   6.33446189262156     -1.82925700420539     -8.63011198259945
  H   6.08056762899808     -2.24964128003611     -7.78593746100909
  O   5.40854211707408     -3.13302540109357    -11.06891927826835
  H   5.97730143441304     -3.36691986154757    -11.80681677822316
  H   6.01409270463029     -2.88738873035670    -10.35264965836719
