39

H     1.736976    -4.660335    -0.298379
O     1.840541    -5.329176     0.422413
H     1.329067    -6.105633     0.134291
H     2.406182    -6.367276    -4.151744
O     2.061287    -6.081544    -3.289306
H     2.501021    -6.679286    -2.640750
H    -2.276394    -7.947352     0.564694
O    -1.860856    -7.463182     1.304335
H    -2.590873    -7.041779     1.773715
H     0.026948    -7.141147    -1.255518
O     0.409875    -7.596934    -0.452256
H    -0.285545    -7.491091     0.211634
H     2.707128    -8.095594    -0.771661
O     3.094093    -7.983846    -1.656192
H     2.751674    -8.717824    -2.210538
H    -0.942976    -7.097663    -3.254043
O    -0.458758    -6.449926    -2.699425
H     0.429885    -6.343909    -3.128936
H    -2.400010    -9.698938    -0.875950
O    -2.590357    -8.778499    -1.087549
H    -3.544170    -8.626693    -0.836962
H    -0.110296    -8.082103     2.573647
O     0.740731    -7.820867     2.942474
H     1.423598    -8.144611     2.330283
H     0.184940    -8.092644    -5.472230
O     0.232140    -9.069546    -5.320622
H     0.496231    -9.435496    -6.169404
H    -2.316146    -8.717687    -2.959983
O    -2.008481    -8.366897    -3.816323
H    -1.472328    -9.027494    -4.271892
H     1.298273    -10.201983    -2.572890
O     1.930618    -9.886698    -3.245234
H     1.362141    -9.570092    -3.975576
H     3.777055    -8.928486     1.126136
O     3.037049    -8.318947     1.213535
H     3.463015    -7.481316     1.520874
N     0.128601    -10.239262    -1.076479
H     0.523545    -10.761398    -0.372201
H     0.258278    -9.294988    -0.807392
