603

H     0.209082     3.034039    -0.669317
O     0.731110     2.366380    -1.164123
H     1.670072     2.493957    -0.889578
H    -0.070534    -1.306549     3.157030
O     0.321577    -0.606676     2.612375
H    -0.154312     0.207557     2.846727
H    -2.391150     2.414310    -0.528064
O    -2.181230     1.943375     0.295808
H    -2.196692     0.995666     0.070389
H    -4.656192     0.550042     2.188899
O    -4.974240    -0.383040     2.200909
H    -4.468996    -0.860585     1.534735
H     0.069925    -0.306948     0.957892
O    -0.127428    -0.069260     0.031199
H     0.212903     0.827214    -0.088015
H    -0.149456    -3.577437     3.782463
O    -0.428360    -2.747623     4.203464
H     0.217969    -2.577279     4.905147
H    -4.878713     2.534081     1.338112
O    -4.239665     2.124106     1.952899
H    -3.396598     2.106233     1.440467
H    -3.240924     3.903272    -2.202857
O    -2.503621     3.305998    -1.972361
H    -2.144884     3.018670    -2.832074
H    -0.121098    -3.802809     0.507214
O     0.219370    -2.985838     0.925573
H    -0.567530    -2.499100     1.238051
H    -2.372098    -1.536686     2.475203
O    -2.184013    -2.002535     1.633978
H    -2.441350    -1.414497     0.904843
H     2.077954    -1.441440    -1.115724
O     2.309832    -1.695551    -0.198727
H     1.520339    -2.122486     0.185181
H    -1.381934     1.826524     1.920159
O    -1.476854     1.427918     2.795384
H    -1.459878     2.139448     3.461248
H     0.213109    -2.699813    -1.565327
O    -0.542178    -2.087725    -1.619562
H    -0.362308    -1.361849    -0.985131
H    -3.432024    -2.921083    -0.386691
O    -2.715187    -3.413218    -0.808109
H    -2.004601    -2.782754    -1.025694
H     2.778477     0.127431     2.940291
O     2.877509    -0.056645     3.901743
H     2.969330     0.835930     4.307354
H    -3.519683     6.384415    -0.532239
O    -3.282028     7.049151    -1.230966
H    -3.138611     7.892232    -0.758536
H     3.908051     0.583720     1.192720
O     2.957630     0.401314     1.308791
H     2.720307    -0.350093     0.728380
H    -5.775083     0.849083    -1.597595
O    -4.864490     1.175970    -1.471549
H    -4.974808     2.003966    -0.959208
H    -1.202684     5.399742     2.221746
O    -1.829341     4.653796     2.103575
H    -1.902656     4.231627     2.964899
H     3.500598     2.764526     0.433316
O     3.251838     2.720856    -0.505819
H     3.584881     1.878506    -0.856112
H     1.494726    -4.693989    -2.248091
O     1.559369    -3.917169    -1.674408
H     2.354307    -3.456064    -2.024828
H    -0.915733    -0.080104    -2.541417
O    -0.281765     0.572487    -2.865571
H    -0.020421     1.154136    -2.128284
H     1.702570    -4.684114    -0.176541
O     1.809266    -5.321936     0.565480
H     1.345397    -6.132570     0.268840
H    -1.222330    -3.260532    -2.876072
O    -1.049544    -3.943612    -3.537347
H    -0.923459    -4.790905    -3.068934
H    -2.774402     3.306676     4.713623
O    -1.793409     3.305301     4.679542
H    -1.498642     2.902955     5.514680
H     0.962705     5.042338     4.086357
O     0.017693     5.275565     4.136944
H    -0.452658     4.476078     4.406777
H    -1.727131    -4.647228    -0.368811
O    -0.962349    -5.188927    -0.084601
H    -1.310177    -5.875553     0.493747
H    -3.908194     5.838720    -2.588417
O    -4.260486     5.005471    -2.918355
H    -4.105473     4.970453    -3.886537
H    -2.426764    -3.687201     1.939841
O    -2.445665    -4.591852     2.314599
H    -1.505994    -4.830375     2.455182
H    -4.691394    -2.972871    -2.894594
O    -3.839349    -3.205919    -3.301392
H    -3.508447    -3.999771    -2.836470
H     0.345781     1.375361     4.622239
O     0.852991     2.134133     4.287996
H     0.900848     2.794757     4.993525
H    -4.652149    -5.164180    -1.568457
O    -5.353918    -4.810974    -0.994484
H    -5.140764    -5.165924    -0.110540
H     2.328542    -6.477887    -4.038589
O     1.991627    -6.149699    -3.184818
H     2.425931    -6.724050    -2.521945
H     0.470428    -3.374137    -4.002052
O     1.273251    -3.007448    -4.425189
H     0.953844    -2.634903    -5.273257
H     1.969483    -1.753895     2.986696
O     2.123619    -2.684865     2.768736
H     1.437583    -2.897195     2.101547
H    -3.010477    -1.802838    -3.204941
O    -2.587924    -0.916582    -3.139552
H    -3.243224    -0.270452    -3.458419
H    -3.181332     4.979797     1.090123
O    -3.962962     5.352960     0.634658
H    -4.381786     5.907578     1.340619
H     0.883159     2.254193     2.598834
O     0.982604     2.248276     1.627422
H     1.710653     1.626513     1.463222
H     0.199764     5.659847    -0.746578
O     0.719086     6.324111    -1.254751
H     0.863966     7.121279    -0.696331
H     0.301434     6.868966     2.685972
O    -0.030722     6.592085     1.816484
H     0.626820     5.914917     1.531205
H    -2.474128     0.216466     3.347515
O    -2.696735    -0.597803     3.851859
H    -1.936014    -0.638200     4.473418
H    -0.887592     0.552266     6.031773
O    -0.615116     0.031888     5.257498
H     0.099004    -0.571238     5.543399
H     0.712915    -4.993838     1.982557
O     0.170515    -5.104003     2.786850
H     0.315056    -6.024806     3.058346
H    -2.117520    -8.085155     0.448304
O    -1.794689    -7.598258     1.233959
H    -2.580653    -7.286625     1.690311
H    -0.370094     6.869086    -2.312409
O    -1.116346     7.290829    -2.811377
H    -1.906471     7.162418    -2.248612
H    -1.105153     4.312536     0.584278
O    -0.733494     4.374812    -0.312362
H    -1.440121     4.132451    -0.944305
H    -4.402650     2.748856     3.515519
O    -4.402663     2.918683     4.480273
H    -4.485278     2.035163     4.888529
H     2.028022    -3.584469     4.247406
O     1.964300    -4.057651     5.100135
H     2.471553    -3.521618     5.731213
H     4.691594    -3.196070     0.842065
O     4.531024    -3.119841    -0.124386
H     3.672459    -2.641775    -0.207290
H    -2.717631    -0.743526    -1.346045
O    -3.045017    -0.474363    -0.471384
H    -3.845052     0.052262    -0.677677
H    -1.612191    -0.753933    -4.625760
O    -1.105291    -0.537648    -5.429630
H    -0.395125     0.058276    -5.143962
H     1.798730    -1.711056    -3.372761
O     1.891511    -0.964737    -2.749204
H     1.114453    -0.387065    -2.879489
H     3.667085    -3.124094     2.553778
O     4.625934    -3.353804     2.480140
H     4.680058    -4.314021     2.606397
H     3.428545    -6.123829     3.124195
O     3.784104    -5.922890     2.223953
H     3.046852    -5.575903     1.681590
H    -3.338005     1.618407    -4.170156
O    -4.183583     1.148654    -3.979987
H    -4.400576     1.293146    -3.023008
H    -5.074935     4.152495     0.075341
O    -5.514320     3.286937    -0.027736
H    -6.444651     3.406733    -0.309473
H     6.738645    -1.183444    -1.358674
O     5.966347    -1.033905    -0.806950
H     5.546932    -1.901496    -0.609890
H     4.596758    -3.167661    -2.467538
O     3.728952    -2.995719    -2.883364
H     3.731979    -3.613956    -3.639921
H     4.439461    -2.298753     5.625267
O     4.096593    -2.765037     6.418065
H     4.431317    -3.670062     6.335436
H    -0.781998     6.424718     4.982061
O    -1.373593     6.983329     5.541227
H    -1.495520     7.839731     5.079469
H     4.703556    -0.136119    -1.461164
O     3.936522     0.406731    -1.723984
H     3.243565    -0.193270    -2.053867
H    -0.735556     4.529119    -4.027247
O    -1.517424     5.073722    -4.234985
H    -1.364505     5.939643    -3.811839
H     0.666230     3.207989    -2.649347
O     0.672545     3.585183    -3.557884
H     0.720220     2.821983    -4.143664
H    -5.381097    -5.189466     1.797109
O    -4.684888    -5.784378     1.441245
H    -3.844020    -5.369191     1.712030
H     7.884738    -1.690206    -4.030717
O     7.627376    -1.377635    -3.130769
H     7.140880    -0.533315    -3.286309
H     3.702241    -5.068774    -5.288687
O     4.465178    -4.696203    -4.807757
H     4.849248    -5.407767    -4.262383
H    -3.778054     0.019313     4.941452
O    -4.378443     0.483048     5.574871
H    -5.039003    -0.174998     5.865968
H     3.465864    -5.942124    -0.518424
O     4.338493    -5.695371    -0.836835
H     4.415609    -4.733206    -0.692227
H     5.004436    -0.333862    -4.155780
O     4.468791    -1.044757    -4.546177
H     4.142443    -1.628298    -3.828592
H    -1.167409     1.577849    -3.928906
O    -1.817544     2.199022    -4.314409
H    -1.459616     2.530814    -5.160475
H     4.885558    -6.321528    -2.314953
O     5.217985    -6.646219    -3.180890
H     6.035788    -7.127656    -2.994670
H     8.741608    -5.093554    -2.918240
O     8.050122    -5.511305    -2.360141
H     8.084210    -6.468572    -2.462842
H     2.344491     4.721863     0.465086
O     1.758053     4.705997     1.230751
H     1.406208     3.784325     1.309521
H    -4.411267    -2.632625     4.236374
O    -5.305140    -2.292436     4.034473
H    -5.167911    -1.511034     3.459377
H    -5.842886    -3.190960     1.322232
O    -6.305981    -3.748107     1.990311
H    -6.116867    -3.313419     2.841114
H     1.691926     3.456518     6.874550
O     1.068697     3.970186     6.339002
H     0.287469     4.131120     6.910990
H     5.004995    -2.172653     3.619553
O     5.025971    -1.455204     4.284447
H     4.214495    -0.898017     4.128185
H     2.393214    -5.579385     4.839970
O     2.772517    -6.463442     4.579388
H     2.026997    -7.044273     4.405095
H     2.257697    -4.510797    -6.788139
O     2.088369    -4.999634    -5.972827
H     1.824311    -4.308703    -5.316822
H     6.441804    -4.105152    -0.501732
O     7.194914    -4.509097    -0.039078
H     7.701789    -4.931491    -0.760339
H    -1.713591     4.486831     7.712262
O    -0.815658     4.590543     8.095589
H    -0.637034     5.552636     8.106819
H    -5.111542     5.702810    -5.586053
O    -4.504272     4.939143    -5.606571
H    -3.746917     5.153391    -6.172505
H     3.282818    -2.521659    -8.433527
O     3.194960    -3.054861    -7.632605
H     4.071639    -3.031303    -7.203781
H    -0.650869     8.831228    -2.264502
O    -0.525931     9.659131    -1.744416
H     0.237392     9.481445    -1.169690
H     2.071408    -0.915017     5.216392
O     1.498645    -1.441169     5.803720
H     1.593017    -1.096439     6.701085
H     5.207792    -2.021647    -5.689761
O     5.553307    -2.787759    -6.212533
H     5.279315    -3.577895    -5.695344
H     5.697744    -5.219873     4.687069
O     5.175961    -5.135416     5.514090
H     4.453889    -5.766714     5.428151
H    -3.967358     1.146774     7.014533
O    -3.774953     1.623301     7.858011
H    -4.651201     2.007771     8.119845
H    -1.839423     9.617828    -0.734227
O    -2.698868     9.496839    -0.255835
H    -3.311874     10.119124    -0.651018
H    -5.941853     4.697314    -2.928615
O    -6.850549     4.579254    -3.273018
H    -6.760551     3.876865    -3.950236
H     0.094517    -7.061697    -1.141954
O     0.558740    -7.498605    -0.394859
H    -0.120267    -7.693225     0.254245
H    -7.631337     3.799175    -1.964170
O    -7.892838     3.212201    -1.224206
H    -7.750354     2.303465    -1.563986
H     3.979414    -0.898013     6.990694
O     3.988332     0.066136     6.982837
H     4.800251     0.356460     6.550737
H     2.266804     5.797538    -1.169583
O     3.202048     5.504885    -1.058057
H     3.377177     4.964705    -1.851198
H     6.551574    -5.932428     0.672338
O     6.182684    -6.669023     1.205514
H     5.278460    -6.391443     1.433025
H    -3.861871     4.727003     7.793071
O    -3.296479     4.267369     7.130277
H    -3.488434     3.323183     7.238682
H     5.762177    -7.947496     0.137257
O     5.473799    -8.634197    -0.500531
H     4.644695    -8.307941    -0.894321
H    -0.549805     2.040353     7.700467
O    -1.184002     1.975648     6.966182
H    -2.051961     1.833361     7.363432
H    -6.377786    -0.116031     1.069591
O    -6.698978    -0.198427     0.156888
H    -7.617686    -0.469234     0.175535
H    -5.369479    -3.058033    -0.582880
O    -5.116959    -2.356355     0.043358
H    -5.686393    -1.582986    -0.143847
H     4.329485     5.574740     0.328387
O     4.660527     5.674013     1.234424
H     3.964204     6.191652     1.679873
H    -9.041351    -1.735813    -2.246071
O    -8.493190    -1.534985    -1.460096
H    -8.620498    -2.271988    -0.822809
H    -5.519522     3.479961    -5.518352
O    -6.037266     2.769703    -5.103517
H    -5.370916     2.183481    -4.690277
H     3.182709    -0.884664    -5.650425
O     2.326680    -1.003836    -6.116361
H     2.411580    -1.852736    -6.590057
H     8.116109    -1.348871    -6.026389
O     8.124126    -2.213224    -5.570602
H     7.267540    -2.612503    -5.820895
H     7.623691     0.991966    -6.305347
O     7.434281     0.144138    -6.719383
H     6.452893     0.094614    -6.755119
H    -7.858331    -3.685864     0.935855
O    -8.536915    -3.578325     0.251732
H    -8.439168    -4.337494    -0.350361
H    -2.480122     8.771193     1.241420
O    -2.319244     8.228339     2.031647
H    -1.569857     7.639838     1.813224
H    -4.440787     6.434260     3.505902
O    -4.614086     6.861267     2.651621
H    -3.848839     7.443488     2.505414
H     3.405934     3.448767    -3.570656
O     3.252885     4.418053    -3.477879
H     2.287891     4.483013    -3.583791
H    -6.113461    -1.597288    -3.435412
O    -6.196546    -2.176952    -2.651770
H    -6.980143    -1.869551    -2.142679
H     6.473913     1.045499     4.744579
O     6.080800     1.584030     5.448146
H     6.268181     2.502905     5.156285
H     1.365085     1.727177    -5.815861
O     1.169897     1.130958    -5.062132
H     1.533395     0.267962    -5.332144
H    -2.480127     2.963739     10.491841
O    -2.269459     2.055713     10.218956
H    -2.867015     1.856494     9.486349
H     7.632054    -0.502853     3.086997
O     6.882544     0.073371     3.256116
H     6.189868    -0.526209     3.635773
H    -5.660099    -8.047810    -0.697794
O    -4.925150    -8.117387    -0.051600
H    -4.928169    -7.300326     0.470751
H    -5.174759    -0.110141    -4.707779
O    -5.792245    -0.821482    -4.947855
H    -6.630240    -0.379339    -5.145478
H     1.891627    -0.192779    -7.509538
O     1.689942     0.279506    -8.353225
H     2.266280    -0.125764    -9.006606
H     4.872624    -1.388596    -9.300130
O     3.947541    -1.159021    -9.582126
H     3.927049    -1.276810    -10.531161
H     7.567550    -2.575666     4.202192
O     7.714356    -2.611676     3.242706
H     7.220096    -3.401866     2.970617
H     6.722101    -5.898632     2.685432
O     6.784237    -5.223906     3.386956
H     7.660244    -5.309443     3.804455
H    -2.311242     9.077051     3.564911
O    -2.194498     9.375296     4.494789
H    -3.071377     9.265273     4.925315
H    -7.386730     1.577845    -5.241603
O    -7.961857     0.833828    -4.996923
H    -8.863372     1.233750    -4.920508
H     6.926785    -1.080188    -8.400885
O     6.344491    -1.800869    -8.664830
H     6.116549    -2.250987    -7.833010
H    -1.670203     6.248909    -7.012414
O    -2.069442     5.424331    -6.738766
H    -1.820269     5.292501    -5.775432
H     0.010045     3.310710     9.030774
O     0.205595     2.390319     9.284842
H    -0.592094     2.126715     9.792353
H     6.757625    -2.780012    -2.702385
O     6.226834    -3.524259    -2.361844
H     6.694931    -4.335140    -2.608834
H    -4.076911    -3.065048    -4.937837
O    -4.231371    -2.951797    -5.902546
H    -4.778275    -2.158456    -5.958050
H     1.988662     2.179464     8.473494
O     2.652560     2.291903     7.783551
H     3.073536     1.421290     7.666308
H    -6.907412    -5.193837    -1.389939
O    -7.823231    -5.462710    -1.635406
H    -7.956811    -5.059641    -2.518124
H    -3.795214     5.252535     5.723041
O    -3.780849     6.014199     5.120968
H    -2.852446     6.334171     5.197320
H    -7.881632     0.096667    -1.957481
O    -7.391906     0.820370    -2.370919
H    -7.620272     0.809615    -3.324117
H     5.841749     0.128457     0.416609
O     5.620388     0.849999     1.037491
H     6.130521     0.654744     1.850396
H    -6.207546     3.314236     7.406518
O    -6.079665     2.796133     8.235195
H    -6.679927     2.034793     8.146645
H     2.276764    -8.072050    -0.841201
O     2.953470    -8.059590    -1.537732
H     2.727881    -8.773254    -2.151049
H    -2.745099    -3.953764    -6.191931
O    -1.991695    -4.520548    -5.960726
H    -1.714969    -4.229644    -5.063463
H    -5.635730     3.765358     5.319535
O    -6.284219     4.161483     5.937796
H    -6.125814     5.106183     5.920369
H    -1.019970    -7.109260    -3.160268
O    -0.547082    -6.440030    -2.631823
H     0.360428    -6.371019    -3.012760
H     4.451318     2.013335     5.135849
O     3.509640     2.252411     5.015868
H     3.125306     2.270054     5.897613
H     4.124263     4.645371     6.308283
O     4.209255     5.375787     5.691094
H     3.635054     5.143794     4.921779
H     2.771470     3.617313     3.929438
O     2.595665     4.558044     3.766592
H     2.472640     4.659137     2.800922
H     9.397495     0.207944    -1.067374
O     8.591455     0.371196    -0.574011
H     8.415177    -0.447414    -0.080726
H    -2.089117     5.324467     10.658241
O    -2.811198     4.696293     10.890501
H    -3.027289     4.872561     11.806430
H     7.975065    -3.012197     0.330052
O     8.397092    -2.166040     0.585291
H     8.331352    -2.161202     1.547615
H     5.379015     3.662303     3.531049
O     6.036710     3.925070     4.196840
H     5.624529     4.642005     4.701021
H    -4.197968     5.026438     9.794914
O    -4.831597     5.176828     9.073043
H    -5.443841     4.428416     9.071796
H    -7.010225    -3.468937    -3.478407
O    -7.631271    -4.080151    -3.926953
H    -7.110655    -4.522218    -4.629494
H     0.039822     6.141521     10.770659
O    -0.827312     6.468602     10.526461
H    -0.718964     6.897504     9.658918
H     2.592721     1.498868    -4.098326
O     3.471603     1.850709    -3.860531
H     3.791716     1.335815    -3.089763
H    -6.966556    -0.213866     7.228829
O    -7.474555     0.564911     7.509579
H    -8.097949     0.748639     6.805742
H    -2.745478    -9.868262    -0.826995
O    -2.681878    -8.926617    -0.986647
H    -3.587410    -8.559649    -0.745396
H    -10.064486     3.088061    -4.886902
O    -10.182179     2.170530    -4.606692
H    -10.397457     2.254111    -3.656811
H    -2.064424    -3.021831     4.620121
O    -2.939654    -3.461411     4.689907
H    -2.934107    -4.078891     3.933349
H    -0.178574    -7.980607     2.488381
O     0.648062    -7.771090     2.936238
H     1.366012    -8.066965     2.349003
H     6.710659    -2.379743     6.395365
O     7.159226    -3.090170     5.931966
H     6.528371    -3.824236     5.893665
H    -5.267636    -1.999455     6.951325
O    -5.943880    -1.500735     6.467949
H    -5.928081    -1.877291     5.558538
H     0.839586     3.038615    -7.106779
O     1.757024     2.707543    -7.163782
H     1.742447     1.959949    -7.789501
H    -4.294140     8.604342     6.749791
O    -4.369794     8.580721     5.795689
H    -4.309746     7.637744     5.538901
H    -2.048430     10.319753    -2.726972
O    -2.951228     10.504719    -3.023105
H    -2.881552     11.134775    -3.739722
H     9.412892    -4.066550     4.045916
O     9.133298    -4.744799     4.668442
H     8.704065    -4.272478     5.392784
H    -0.736854    -5.990771    -5.836426
O    -0.033702    -6.558103    -5.503644
H     0.802077    -6.097013    -5.721231
H     1.842730     8.271370     0.675009
O     1.531611     8.603593    -0.197510
H     2.342858     8.637330    -0.733634
H     3.501746     2.933742    -6.655391
O     4.329346     2.642549    -6.246855
H     4.084496     2.368910    -5.337798
H     3.740309     7.127907    -1.220264
O     3.943948     8.063355    -1.437205
H     4.315596     8.004964    -2.329309
H     4.395905    -0.003318    -7.906801
O     4.773701     0.142157    -7.037575
H     4.592693     1.074070    -6.793251
H     6.035334     1.932904    -0.470243
O     6.600363     2.125190    -1.232509
H     7.424773     1.645315    -1.038641
H     6.681663    -8.432270    -1.606416
O     7.317447    -8.221966    -2.343263
H     7.683132    -9.056484    -2.631638
H    -5.303283    -5.778946    -5.401506
O    -5.920162    -5.106465    -5.715847
H    -5.368556    -4.338506    -5.952404
H     0.692257     7.108289     7.595974
O    -0.205934     7.210648     7.951856
H    -0.746490     7.252518     7.130319
H    -8.896967    -2.822587    -4.093500
O    -9.416921    -2.013788    -3.925728
H    -9.130505    -1.348945    -4.555734
H    -2.410869    -5.982188    -2.138533
O    -3.289009    -5.695382    -2.406675
H    -3.476731    -6.069523    -3.292519
H    -2.988607    -5.892001    -5.404278
O    -3.588779    -6.501603    -4.932175
H    -3.107304    -7.322222    -4.765893
H    -1.387269     3.734131    -6.974218
O    -0.847116     2.978192    -6.703826
H    -1.084584     2.193172    -7.253733
H    -0.203086     0.424864    -8.208985
O    -1.098867     0.660626    -7.925137
H    -1.273990     0.136839    -7.127290
H    -10.417575     4.064901    -2.722117
O    -10.485448     3.286099    -2.154251
H    -9.655779     3.258665    -1.645896
H     4.584731     4.081608     1.728153
O     4.376940     3.158903     2.003789
H     5.094338     2.584883     1.722941
H     6.488840     1.399054    -4.214620
O     6.185727     0.774629    -3.520991
H     6.217039     1.269687    -2.676863
H     9.634905    -2.229115    -0.927577
O     9.911292    -2.014815    -1.827471
H     9.111022    -1.675005    -2.270269
H     9.969601    -3.323279    -3.097216
O     9.702167    -3.974786    -3.772556
H     9.308287    -3.466532    -4.492266
H    -7.701052    -8.565163    -1.660055
O    -6.962883    -7.971295    -1.788692
H    -7.339877    -7.058002    -1.778311
H     4.166771     6.083181    -3.812877
O     4.828387     6.784182    -3.729939
H     5.664142     6.329968    -3.590556
H     0.094077    -8.164739    -5.212583
O     0.117283    -9.147741    -5.081250
H     0.267366    -9.511115    -5.954044
H    -2.335704    -8.667222    -2.712187
O    -2.102350    -8.403323    -3.621833
H    -1.456096    -9.021896    -3.981059
H     2.178624    -10.813099    -3.494729
O     2.133334    -9.858532    -3.470079
H     1.347931    -9.586876    -3.995846
H     6.839705     3.331408    -4.568976
O     6.897453     2.653726    -5.270450
H     6.103658     2.787450    -5.810515
H    -3.559757    -3.719659     7.727572
O    -3.674501    -2.931722     7.197816
H    -3.423447    -3.170383     6.279306
H    -0.638967    -3.355144    -6.718989
O    -0.008319    -2.624066    -6.726718
H    -0.489287    -1.848445    -6.384302
H     0.649000     0.461561     8.758657
O     0.655949    -0.254196     8.119187
H    -0.266575    -0.541979     8.031242
H    -5.827893     7.377678    -4.239039
O    -6.331189     6.759660    -4.800465
H    -6.618138     6.028082    -4.209918
H    -4.270246     9.111970    -3.250550
O    -4.806817     8.316555    -3.144078
H    -4.398083     7.835443    -2.406331
H    -9.706088     5.809502    -4.633569
O    -10.239811     5.005130    -4.469912
H    -11.120423     5.206401    -4.788447
H     2.810162     6.478815     6.214100
O     1.850131     6.576120     6.314317
H     1.498660     5.667940     6.191011
H     4.814408     8.546382     0.092733
O     5.140359     8.550313     1.010248
H     5.537323     7.681879     1.143553
H     4.140107    -7.423179    -4.341000
O     3.381766    -7.707453    -4.883247
H     3.101097    -8.548290    -4.507140
H     1.007341     8.819507     4.317286
O     1.290306     7.912540     4.067201
H     1.483136     7.460613     4.913620
H     5.240367     4.193257    -3.151051
O     6.201840     4.161985    -3.099446
H     6.410679     3.580793    -2.351364
H    -2.572503    -1.542291     7.580337
O    -2.061534    -0.749580     7.800791
H    -2.686655    -0.123054     8.175521
H    -9.021118     7.948541    -4.132934
O    -8.958349     7.364725    -4.890339
H    -8.001405     7.199902    -5.025607
H     3.529103    -8.979036     1.091628
O     2.852639    -8.347256     1.341004
H     3.327533    -7.542161     1.621285
H     3.671652     8.162789     1.776684
O     2.878946     7.595988     1.892910
H     2.494121     7.769521     2.773410
N     0.332305     10.426292     4.739050
H     0.473022     11.069956     4.038515
H    -0.628811     10.237535     4.719948
