12
Coordinates from ORCA-job grain_mol_opt.QMRegion
  H   3.27003123957453     -2.50711958836927     -8.40044714738695
  O   3.19132474850190     -3.00499607431010     -7.56885184434658
  H   4.07593161378210     -2.95359044851896     -7.16332556702962
  H   4.79841464553524     -1.21762421624323     -9.27995770779402
  O   3.88039374993072     -1.15228013825652     -9.61591538225324
  H   3.95536882572212     -1.55735572386995    -10.48684003990294
  H   7.02724922819753     -1.03422359055831     -8.30115684132942
  O   6.42826237915404     -1.73936669464923     -8.58480720588760
  H   6.16855017564429     -2.16558470214787     -7.74538284877021
  O   5.53146497857660     -3.01417331244055    -11.04483214191474
  H   6.12949823450609     -2.77626771628128    -10.31963720833331
  H   6.10746908933511     -3.27137807849420    -11.76911812159278
