603

H     0.188392     3.024762    -0.676983
O     0.712160     2.358697    -1.171753
H     1.650776     2.487971    -0.897550
H    -0.079931    -1.312670     3.152649
O     0.311520    -0.611223     2.609219
H    -0.169010     0.200614     2.842220
H    -2.409704     2.398233    -0.535428
O    -2.198487     1.930212     0.289578
H    -2.213321     0.981475     0.066462
H    -4.661419     0.530292     2.193027
O    -4.964968    -0.405492     2.213944
H    -4.477908    -0.882298     1.534223
H     0.056948    -0.315189     0.954379
O    -0.139464    -0.078373     0.027206
H     0.197611     0.819009    -0.092446
H    -0.154228    -3.582638     3.781520
O    -0.432752    -2.752011     4.201097
H     0.212413    -2.581347     4.903589
H    -4.899132     2.514947     1.335185
O    -4.255076     2.112837     1.946213
H    -3.413382     2.093215     1.431524
H    -3.264302     3.885025    -2.211165
O    -2.524868     3.291620    -1.979783
H    -2.166496     3.001567    -2.838915
H    -0.126122    -3.811352     0.507008
O     0.213265    -2.992998     0.923748
H    -0.575100    -2.508187     1.236467
H    -2.383125    -1.549808     2.473492
O    -2.188824    -2.014442     1.633075
H    -2.453064    -1.430171     0.903259
H     2.066866    -1.446903    -1.119038
O     2.299842    -1.698929    -0.201795
H     1.511476    -2.127863     0.182736
H    -1.399960     1.816673     1.913812
O    -1.491224     1.419250     2.789785
H    -1.478056     2.131143     3.455094
H     0.204558    -2.709940    -1.566931
O    -0.550856    -2.098309    -1.623123
H    -0.373659    -1.373007    -0.987573
H    -3.442291    -2.939692    -0.388362
O    -2.721628    -3.428957    -0.807168
H    -2.014067    -2.795776    -1.025167
H     2.765149     0.127695     2.934633
O     2.865906    -0.054028     3.896257
H     2.955117     0.839097     4.300575
H    -3.548013     6.367938    -0.540981
O    -3.313883     7.030198    -1.242350
H    -3.170591     7.875835    -0.772993
H     3.893371     0.584014     1.186153
O     2.943076     0.401299     1.302230
H     2.706751    -0.352180     0.723743
H    -5.666694     0.845149    -1.534621
O    -4.765323     1.200143    -1.486257
H    -4.854164     2.076747    -1.059630
H    -1.228760     5.388967     2.211223
O    -1.853940     4.641976     2.094352
H    -1.929492     4.221654     2.956445
H     3.480770     2.762217     0.425021
O     3.232847     2.719229    -0.514154
H     3.566430     1.876904    -0.864494
H     1.490461    -4.701734    -2.247834
O     1.554179    -3.924073    -1.675204
H     2.347755    -3.461730    -2.026675
H    -0.930087    -0.094653    -2.545714
O    -0.298669     0.560149    -2.870768
H    -0.038134     1.142029    -2.133621
H     1.699033    -4.689376    -0.176559
O     1.808474    -5.326501     0.565568
H     1.345224    -6.138116     0.270450
H    -1.230837    -3.275628    -2.876540
O    -1.054449    -3.958377    -3.537226
H    -0.927976    -4.805114    -3.067893
H    -2.793198     3.297595     4.706553
O    -1.811785     3.299106     4.672004
H    -1.517646     2.897019     5.507705
H     0.946241     5.030918     4.076238
O    -0.000277     5.261596     4.127900
H    -0.470697     4.457726     4.386835
H    -1.730668    -4.659720    -0.367330
O    -0.964399    -5.199731    -0.083334
H    -1.311088    -5.886052     0.496118
H    -3.936931     5.817473    -2.596121
O    -4.291717     4.985021    -2.926147
H    -4.132147     4.947965    -3.893625
H    -2.432228    -3.699110     1.940094
O    -2.447647    -4.603564     2.315525
H    -1.507677    -4.839114     2.456659
H    -4.699944    -2.994054    -2.894158
O    -3.846581    -3.225757    -3.300804
H    -3.515185    -4.018587    -2.834655
H     0.331084     1.372370     4.615771
O     0.835381     2.133790     4.281728
H     0.883103     2.792500     4.988806
H    -4.654717    -5.186380    -1.564782
O    -5.357444    -4.833764    -0.992226
H    -5.144514    -5.185224    -0.106922
H     2.328320    -6.485757    -4.036941
O     1.991439    -6.156971    -3.183441
H     2.426513    -6.730017    -2.519980
H     0.463102    -3.386027    -4.002654
O     1.264881    -3.017738    -4.426797
H     0.943848    -2.647239    -5.275104
H     1.959513    -1.755640     2.983422
O     2.117213    -2.686024     2.765783
H     1.430811    -2.901381     2.099719
H    -3.021669    -1.822756    -3.205519
O    -2.600826    -0.934882    -3.143116
H    -3.258710    -0.291618    -3.460914
H    -3.207405     4.962916     1.081769
O    -3.991258     5.335257     0.628981
H    -4.403510     5.894192     1.336946
H     0.864862     2.249138     2.591775
O     0.966073     2.245494     1.620484
H     1.693402     1.622654     1.456220
H     0.172183     5.650608    -0.758289
O     0.691178     6.313842    -1.268118
H     0.833261     7.113529    -0.712141
H     0.323710     7.030833     2.590521
O    -0.038541     6.649966     1.773325
H     0.626359     5.980125     1.511793
H    -2.487989     0.203606     3.344563
O    -2.705285    -0.610205     3.850793
H    -1.944485    -0.647221     4.471683
H    -0.900223     0.547393     6.027872
O    -0.623476     0.030361     5.252891
H     0.089341    -0.573708     5.539662
H     0.711522    -4.999215     1.982993
O     0.171026    -5.109068     2.788469
H     0.315904    -6.029688     3.060240
H    -2.113622    -8.097888     0.453199
O    -1.791033    -7.610040     1.238336
H    -2.577560    -7.298490     1.693986
H    -0.400447     6.856379    -2.325272
O    -1.148351     7.274768    -2.824349
H    -1.937312     7.146985    -2.260134
H    -1.128793     4.300999     0.575485
O    -0.757134     4.364260    -0.320962
H    -1.462680     4.119162    -0.953097
H    -4.421372     2.732844     3.511890
O    -4.418924     2.904043     4.475922
H    -4.501522     2.020429     4.885041
H     2.023622    -3.584455     4.245890
O     1.962240    -4.056873     5.099185
H     2.467423    -3.518424     5.729696
H     4.685251    -3.193386     0.839485
O     4.524584    -3.117813    -0.127037
H     3.664470    -2.642496    -0.210066
H    -2.728714    -0.761796    -1.348139
O    -3.051144    -0.491746    -0.472170
H    -3.853614     0.032706    -0.675423
H    -1.626198    -0.771849    -4.628953
O    -1.120260    -0.553984    -5.433199
H    -0.410840     0.042742    -5.147673
H     1.787691    -1.719456    -3.375601
O     1.879595    -0.971463    -2.753802
H     1.100361    -0.396771    -2.883694
H     3.661165    -3.121981     2.551314
O     4.620636    -3.349490     2.477735
H     4.676688    -4.309543     2.604826
H     3.429568    -6.121695     3.124909
O     3.784713    -5.920465     2.224509
H     3.046301    -5.576295     1.681845
H    -3.358262     1.597109    -4.174331
O    -4.205278     1.129670    -3.985004
H    -4.419800     1.271341    -3.027177
H    -4.988877     4.201009     0.104260
O    -5.425690     3.338944    -0.075242
H    -6.365219     3.467657    -0.290120
H     6.726899    -1.178441    -1.364067
O     5.954640    -1.029574    -0.812088
H     5.537050    -1.897949    -0.613825
H     4.589451    -3.168654    -2.470290
O     3.721398    -2.998558    -2.886315
H     3.725124    -3.618052    -3.641856
H     4.433447    -2.291436     5.621596
O     4.092545    -2.756935     6.415562
H     4.427855    -3.661803     6.333517
H    -0.770841     6.331170     5.075627
O    -1.368420     6.906475     5.613476
H    -1.382857     7.783360     5.172071
H     4.689455    -0.135731    -1.467068
O     3.921244     0.405465    -1.730065
H     3.229425    -0.196519    -2.059056
H    -0.761812     4.513920    -4.036692
O    -1.545392     5.056362    -4.244013
H    -1.393497     5.923359    -3.822372
H     0.644152     3.197757    -2.657838
O     0.649206     3.574346    -3.566648
H     0.698643     2.810516    -4.151543
H    -5.383179    -5.206470     1.797395
O    -4.685484    -5.803598     1.444826
H    -3.846304    -5.384980     1.714171
H     7.873390    -1.685406    -4.036050
O     7.615783    -1.372211    -3.136358
H     7.127199    -0.529361    -3.292732
H     3.698088    -5.074444    -5.288984
O     4.460605    -4.699738    -4.808940
H     4.846234    -5.409935    -4.262865
H    -3.791602     0.006213     4.938052
O    -4.389832     0.470557     5.572734
H    -5.052038    -0.187166     5.862004
H     3.465430    -5.943614    -0.518014
O     4.337543    -5.695130    -0.836672
H     4.412203    -4.732663    -0.693239
H     4.989998    -0.335890    -4.161507
O     4.455665    -1.048081    -4.551138
H     4.130930    -1.632010    -3.832977
H    -1.187151     1.561681    -3.933982
O    -1.838399     2.181761    -4.319763
H    -1.481237     2.512798    -5.166433
H     4.885268    -6.321693    -2.314373
O     5.218470    -6.646148    -3.180124
H     6.037205    -7.125847    -2.993601
H     8.738422    -5.085711    -2.920200
O     8.048206    -5.504226    -2.361215
H     8.084069    -6.461561    -2.462930
H     2.321830     4.716809     0.450635
O     1.742235     4.698842     1.221499
H     1.387477     3.777426     1.300716
H    -4.417429    -2.647265     4.236785
O    -5.312681    -2.310596     4.038501
H    -5.181123    -1.531126     3.459416
H    -5.853652    -3.208858     1.322698
O    -6.304364    -3.774633     1.991348
H    -6.126200    -3.332321     2.840133
H     1.675441     3.467251     6.862024
O     1.051587     3.982250     6.328637
H     0.268340     4.133203     6.900464
H     4.997500    -2.166725     3.615523
O     5.017627    -1.447889     4.279077
H     4.204539    -0.893217     4.122998
H     2.393640    -5.578089     4.840276
O     2.774972    -6.461487     4.580547
H     2.030578    -7.044017     4.406951
H     2.251665    -4.521458    -6.788580
O     2.084271    -5.009735    -5.972576
H     1.818418    -4.318893    -5.317177
H     6.437110    -4.099938    -0.503717
O     7.191640    -4.501169    -0.041034
H     7.699023    -4.923455    -0.761992
H    -1.737966     4.482792     7.702224
O    -0.838970     4.583160     8.086930
H    -0.660014     5.542539     8.110995
H    -5.138815     5.677756    -5.595976
O    -4.531614     4.914550    -5.614644
H    -3.773819     5.128871    -6.180361
H     3.271992    -2.531538    -8.436505
O     3.185486    -3.063996    -7.634979
H     4.062224    -3.038389    -7.206448
H    -0.684901     8.818794    -2.279568
O    -0.563881     9.647550    -1.760753
H     0.199454     9.474893    -1.184702
H     2.061996    -0.913847     5.212529
O     1.491323    -1.441032     5.800740
H     1.584170    -1.094577     6.697591
H     5.196635    -2.024672    -5.693833
O     5.543902    -2.790444    -6.215890
H     5.271623    -3.580736    -5.697892
H     5.697153    -5.210897     4.686112
O     5.175699    -5.126622     5.513321
H     4.454854    -5.759499     5.428413
H    -3.981158     1.135177     7.010820
O    -3.789286     1.613489     7.853731
H    -4.666551     1.996120     8.114919
H    -1.876947     9.604750    -0.746963
O    -2.737596     9.476443    -0.272998
H    -3.349162     10.105146    -0.659813
H    -5.966765     4.674006    -2.933924
O    -6.878607     4.546003    -3.268348
H    -6.783629     3.849784    -3.952890
H     0.096081    -7.071325    -1.138696
O     0.561604    -7.506452    -0.391336
H    -0.117039    -7.701790     0.258035
H    -7.661974     3.780832    -2.014865
O    -7.915400     3.144901    -1.308401
H    -7.750216     2.263315    -1.737081
H     3.969456    -0.889818     6.986086
O     3.976950     0.074377     6.976909
H     4.788406     0.365127     6.544345
H     2.238593     5.792870    -1.182030
O     3.174700     5.502385    -1.068332
H     3.351845     4.961736    -1.861094
H     6.551280    -5.925697     0.672049
O     6.184399    -6.662495     1.206214
H     5.279486    -6.386925     1.433650
H    -3.881948     4.719298     7.782798
O    -3.314746     4.257988     7.123328
H    -3.506141     3.313997     7.234184
H     5.766395    -7.943057     0.139115
O     5.479721    -8.630827    -0.498249
H     4.649298    -8.307267    -0.891575
H    -0.566324     2.037137     7.694637
O    -1.199783     1.972755     6.959868
H    -2.067837     1.828511     7.356606
H    -6.247760    -0.140197     1.131956
O    -6.625170    -0.136804     0.232821
H    -7.577748    -0.023308     0.354142
H    -5.381764    -3.074986    -0.580764
O    -5.124162    -2.371494     0.040849
H    -5.713327    -1.611013    -0.128429
H     4.298974     5.578688     0.316780
O     4.633425     5.680893     1.221580
H     3.938055     6.189474     1.674319
H    -9.051164    -1.887359    -2.282941
O    -8.526279    -1.605278    -1.506600
H    -8.587626    -2.315812    -0.823578
H    -5.544049     3.452715    -5.523219
O    -6.061885     2.746477    -5.101746
H    -5.393884     2.158440    -4.691649
H     3.168905    -0.892209    -5.654976
O     2.313118    -1.013226    -6.120863
H     2.399292    -1.862774    -6.593213
H     8.103310    -1.345582    -6.032174
O     8.113416    -2.209352    -5.575384
H     7.257660    -2.610927    -5.824973
H     7.605539     0.994004    -6.313443
O     7.417902     0.145331    -6.726504
H     6.436619     0.093423    -6.761824
H    -7.872749    -3.693137     0.930863
O    -8.546986    -3.592476     0.242309
H    -8.445574    -4.355254    -0.352897
H    -2.430038     8.727511     1.292200
O    -2.279493     8.138656     2.044948
H    -1.507488     7.587395     1.823327
H    -4.462202     6.423511     3.498510
O    -4.633719     6.848263     2.641286
H    -3.871542     7.436065     2.501770
H     3.383181     3.444067    -3.579314
O     3.227947     4.413173    -3.486453
H     2.262886     4.475750    -3.593442
H    -6.125199    -1.625133    -3.434326
O    -6.204411    -2.208286    -2.654143
H    -6.986178    -1.901171    -2.136990
H     6.459437     1.056102     4.736592
O     6.065233     1.594715     5.439569
H     6.251260     2.513515     5.147799
H     1.345742     1.715370    -5.822615
O     1.152438     1.119925    -5.067881
H     1.517057     0.257096    -5.337138
H    -2.498115     2.957688     10.485762
O    -2.284001     2.050471     10.212893
H    -2.881751     1.848976     9.480939
H     7.620535    -0.490600     3.080608
O     6.869709     0.084029     3.249438
H     6.178574    -0.517293     3.629659
H    -5.656284    -8.069368    -0.692060
O    -4.920582    -8.136831    -0.046257
H    -4.925660    -7.319120     0.475543
H    -5.188476    -0.135016    -4.710700
O    -5.802032    -0.848289    -4.954619
H    -6.641651    -0.410511    -5.152321
H     1.875693    -0.204963    -7.514397
O     1.672815     0.266369    -8.358412
H     2.249680    -0.138452    -9.011616
H     4.858887    -1.395761    -9.304722
O     3.933329    -1.168054    -9.586690
H     3.912658    -1.287376    -10.535530
H     7.560867    -2.562979     4.198075
O     7.707609    -2.599392     3.238580
H     7.215104    -3.391018     2.967359
H     6.722366    -5.889291     2.684944
O     6.783641    -5.213525     3.385575
H     7.659838    -5.297167     3.802958
H    -1.843868     8.940310     3.495881
O    -1.596201     9.246515     4.393554
H    -2.444812     9.376846     4.850048
H    -7.401546     1.546491    -5.247768
O    -7.975840     0.801013    -5.005282
H    -8.878251     1.196227    -4.938524
H     6.912682    -1.082090    -8.406453
O     6.331778    -1.804213    -8.669489
H     6.105156    -2.254123    -7.837172
H    -1.701317     6.228659    -7.022782
O    -2.099813     5.404299    -6.747347
H    -1.848231     5.273434    -5.784418
H    -0.009179     3.309202     9.023699
O     0.190000     2.390197     9.279698
H    -0.607929     2.124630     9.786144
H     6.749320    -2.776502    -2.706237
O     6.220370    -3.521435    -2.364543
H     6.690047    -4.331654    -2.610754
H    -4.085523    -3.089181    -4.936758
O    -4.239410    -2.976802    -5.901916
H    -4.788947    -2.185269    -5.957636
H     1.971707     2.185101     8.464869
O     2.635069     2.298512     7.774451
H     3.058606     1.428875     7.659176
H    -6.910715    -5.219203    -1.385930
O    -7.823078    -5.495818    -1.635309
H    -7.958950    -5.089770    -2.515806
H    -3.843017     5.247306     5.698122
O    -3.811448     6.015785     5.107003
H    -2.877715     6.311041     5.201135
H    -7.859152     0.011322    -2.018976
O    -7.377832     0.747723    -2.439299
H    -7.634427     0.734880    -3.388501
H     5.827667     0.133648     0.410149
O     5.605296     0.855458     1.030552
H     6.116131     0.661343     1.843402
H    -6.226983     3.297914     7.400507
O    -6.097697     2.780984     8.229536
H    -6.696077     2.017792     8.141104
H     2.280629    -8.076405    -0.837809
O     2.957402    -8.063380    -1.534334
H     2.733072    -8.778092    -2.146908
H    -2.752079    -3.975549    -6.190634
O    -1.996163    -4.539320    -5.960026
H    -1.720744    -4.247715    -5.062543
H    -5.657235     3.748173     5.313781
O    -6.305848     4.146475     5.930372
H    -6.141439     5.090309     5.917156
H    -1.018946    -7.123845    -3.156265
O    -0.546774    -6.452912    -2.629270
H     0.360089    -6.382276    -3.010989
H     4.434604     2.020650     5.127464
O     3.492735     2.259208     5.007793
H     3.108708     2.274300     5.889834
H     4.095964     4.661455     6.298350
O     4.175178     5.391469     5.679879
H     3.607427     5.149428     4.909566
H     2.751131     3.618490     3.921878
O     2.572158     4.558242     3.755109
H     2.451864     4.655654     2.788754
H     9.382664     0.219358    -1.075334
O     8.576783     0.381656    -0.581356
H     8.402329    -0.437121    -0.087603
H    -2.113076     5.317870     10.651774
O    -2.833906     4.688412     10.883977
H    -3.051731     4.865450     11.799307
H     7.968252    -3.002306     0.326012
O     8.388397    -2.154874     0.580363
H     8.322956    -2.149512     1.542713
H     5.357041     3.669668     3.522170
O     6.013582     3.937163     4.187251
H     5.599714     4.654256     4.689360
H    -4.221947     5.015097     9.787365
O    -4.855843     5.164949     9.065863
H    -5.466056     4.414872     9.063607
H    -7.018297    -3.496516    -3.474637
O    -7.638777    -4.106810    -3.926549
H    -7.116323    -4.549872    -4.626699
H     0.014265     6.129296     10.770157
O    -0.850712     6.460054     10.523406
H    -0.736038     6.889780     9.656561
H     2.574331     1.491777    -4.105429
O     3.452215     1.846438    -3.867743
H     3.773951     1.332220    -3.097152
H    -6.978209    -0.230233     7.225785
O    -7.487914     0.547653     7.506345
H    -8.111520     0.728352     6.801746
H    -2.738606    -9.883488    -0.819926
O    -2.676809    -8.942009    -0.981188
H    -3.583242    -8.576314    -0.739134
H    -10.015705     3.049609    -4.955314
O    -10.240527     2.134809    -4.727984
H    -10.422638     2.224161    -3.772284
H    -2.069019    -3.031082     4.619448
O    -2.941710    -3.474314     4.691967
H    -2.938109    -4.090193     3.934195
H    -0.174370    -7.986713     2.492740
O     0.652368    -7.775542     2.939744
H     1.370289    -8.070454     2.352111
H     6.703948    -2.367258     6.391660
O     7.154381    -3.076633     5.928450
H     6.525405    -3.812385     5.890795
H    -5.274945    -2.012777     6.949856
O    -5.951470    -1.514000     6.467347
H    -5.937108    -1.890830     5.557341
H     0.816527     3.024282    -7.114652
O     1.734751     2.695583    -7.171758
H     1.721765     1.946979    -7.796400
H    -3.973821     8.749978     6.672478
O    -3.974207     8.746401     5.715095
H    -4.096931     7.817870     5.449385
H    -2.089281     10.303458    -2.739538
O    -2.991223     10.482638    -3.042096
H    -2.920331     11.117519    -3.754257
H     9.409732    -4.049632     4.042596
O     9.132114    -4.727868     4.666003
H     8.701781    -4.255893     5.389913
H    -0.739191    -6.007333    -5.833829
O    -0.034429    -6.572855    -5.501322
H     0.800110    -6.109971    -5.719471
H     1.802443     8.273425     0.660335
O     1.497799     8.594269    -0.217262
H     2.312109     8.632976    -0.748321
H     3.479006     2.925963    -6.664109
O     4.307473     2.637681    -6.255270
H     4.063436     2.363771    -5.346073
H     3.710834     7.124912    -1.234509
O     3.914540     8.060888    -1.449066
H     4.283596     8.004449    -2.342447
H     4.379476    -0.010520    -7.912613
O     4.757339     0.137129    -7.043771
H     4.574119     1.068800    -6.800536
H     6.017266     1.936664    -0.478729
O     6.581699     2.130576    -1.241017
H     7.407095     1.652146    -1.047447
H     6.686595    -8.427266    -1.604411
O     7.321981    -8.216227    -2.341473
H     7.689523    -9.050225    -2.628991
H    -5.306356    -5.805373    -5.397134
O    -5.924095    -5.134926    -5.714037
H    -5.373890    -4.365861    -5.949961
H     0.666413     7.174146     7.598759
O    -0.234864     7.201280     7.958952
H    -0.791123     7.213737     7.142080
H    -8.904675    -2.856600    -4.093754
O    -9.430085    -2.048555    -3.937970
H    -9.134862    -1.387056    -4.567260
H    -2.411371    -5.999403    -2.135311
O    -3.289363    -5.713498    -2.404534
H    -3.477667    -6.089985    -3.288995
H    -2.990398    -5.913516    -5.401601
O    -3.589285    -6.524096    -4.929452
H    -3.105884    -7.343147    -4.761174
H    -1.412358     3.714544    -6.982426
O    -0.870221     2.960629    -6.710784
H    -1.105257     2.174029    -7.259771
H    -0.220686     0.407227    -8.213693
O    -1.116675     0.641799    -7.929478
H    -1.290504     0.117849    -7.131357
H    -10.521975     4.084991    -2.849557
O    -10.602497     3.358980    -2.209603
H    -9.720239     3.334455    -1.791736
H     4.565444     4.083409     1.717035
O     4.358376     3.162470     1.996156
H     5.074743     2.587162     1.714842
H     6.470533     1.400666    -4.222776
O     6.168901     0.776532    -3.528298
H     6.199627     1.272386    -2.684709
H     9.625871    -2.216977    -0.932945
O     9.901577    -2.002392    -1.832986
H     9.100227    -1.665500    -2.276034
H     9.962399    -3.312433    -3.101646
O     9.696207    -3.965248    -3.776166
H     9.300841    -3.458753    -4.496291
H    -7.696302    -8.592498    -1.649817
O    -6.958655    -7.999067    -1.783473
H    -7.336460    -7.085328    -1.773683
H     4.137923     6.080054    -3.825271
O     4.797744     6.782665    -3.741516
H     5.634844     6.330310    -3.604130
H     0.096885    -8.178916    -5.207955
O     0.123000    -9.161693    -5.075754
H     0.273204    -9.525506    -5.948334
H    -2.331904    -8.683605    -2.706154
O    -2.098161    -8.420552    -3.616103
H    -1.451053    -9.038815    -3.974119
H     2.187794    -10.820601    -3.487641
O     2.141154    -9.866045    -3.464921
H     1.354626    -9.596714    -3.990277
H     6.816894     3.333715    -4.579338
O     6.875842     2.655382    -5.279973
H     6.081563     2.786513    -5.819973
H    -3.563653    -3.729694     7.727252
O    -3.676856    -2.940894     7.198513
H    -3.428600    -3.179757     6.279252
H    -0.647308    -3.372530    -6.719080
O    -0.018590    -2.639665    -6.728555
H    -0.501439    -1.865159    -6.386354
H     0.636714     0.462359     8.754482
O     0.645256    -0.252638     8.114181
H    -0.276543    -0.543490     8.027428
H    -5.859020     7.352264    -4.248543
O    -6.364096     6.731873    -4.806407
H    -6.647511     6.002381    -4.213654
H    -4.307470     9.088900    -3.264727
O    -4.842142     8.292362    -3.155528
H    -4.429898     7.814532    -2.417542
H    -9.740321     5.769300    -4.626578
O    -10.276473     4.967188    -4.457068
H    -11.148893     5.163510    -4.800151
H     2.752388     6.519009     6.136591
O     1.792170     6.614234     6.234687
H     1.450141     5.699997     6.133990
H     4.779572     8.550269     0.077385
O     5.097646     8.552445     0.998065
H     5.505933     7.688833     1.129468
H     4.141729    -7.427243    -4.338796
O     3.384083    -7.713795    -4.880775
H     3.105006    -8.554686    -4.503563
H     0.356161     8.658247     4.231622
O     1.034529     8.014583     4.002903
H     1.262837     7.522454     4.817617
H     5.216049     4.192662    -3.161916
O     6.177581     4.164777    -3.109717
H     6.388107     3.583842    -2.361889
H    -2.579189    -1.549205     7.578170
O    -2.070263    -0.754845     7.798160
H    -2.697837    -0.129865     8.171485
H    -9.055145     7.916217    -4.144187
O    -8.994265     7.322986    -4.894394
H    -8.036886     7.164690    -5.034743
H     3.535992    -8.978809     1.095464
O     2.858212    -8.348246     1.344253
H     3.331184    -7.541779     1.623661
H     3.562039     8.174272     1.823802
O     2.772039     7.610147     1.936633
H     2.326679     7.844943     2.763490
N    -9.225877     0.922523     0.502992
H    -9.843146     0.493683    -0.097640
H    -9.103768     1.809420     0.140175
