603

H     0.187630     3.040844    -0.670741
O     0.708290     2.365921    -1.157194
H     1.646587     2.489686    -0.879664
H    -0.142294    -1.268064     3.170839
O     0.266042    -0.573335     2.630331
H    -0.209662     0.243539     2.854868
H    -2.416619     2.439562    -0.538210
O    -2.214347     1.970965     0.289061
H    -2.235588     1.022384     0.067442
H    -4.709121     0.604217     2.176306
O    -5.028889    -0.328432     2.195772
H    -4.529553    -0.810079     1.528024
H     0.020487    -0.288630     0.974449
O    -0.173100    -0.055551     0.045701
H     0.173871     0.837633    -0.078619
H    -0.228128    -3.404949     3.770011
O    -0.553416    -2.615348     4.230898
H     0.127794    -2.398053     4.889418
H    -4.914139     2.585524     1.313524
O    -4.281053     2.173293     1.933303
H    -3.435754     2.148431     1.424776
H    -3.247541     3.924410    -2.226320
O    -2.515586     3.323209    -1.988288
H    -2.154557     3.028741    -2.844699
H    -0.188352    -3.786263     0.547170
O     0.153177    -2.965167     0.957198
H    -0.633759    -2.473748     1.259989
H    -2.440912    -1.489423     2.482679
O    -2.250100    -1.963258     1.647092
H    -2.500596    -1.380696     0.911122
H     2.030747    -1.449763    -1.080462
O     2.255189    -1.699029    -0.160186
H     1.460264    -2.120119     0.220209
H    -1.427902     1.856507     1.917652
O    -1.526994     1.463972     2.795337
H    -1.510725     2.180163     3.456204
H     0.158915    -2.698666    -1.534137
O    -0.591935    -2.081664    -1.595373
H    -0.410038    -1.353269    -0.964649
H    -3.495586    -2.887024    -0.376186
O    -2.777694    -3.387374    -0.785623
H    -2.062118    -2.763658    -1.006081
H     2.718318     0.136293     2.970347
O     2.810707    -0.042413     3.933762
H     2.907930     0.852166     4.333854
H    -3.519696     6.416791    -0.571363
O    -3.272656     7.074158    -1.273352
H    -3.127515     7.920626    -0.806522
H     3.860889     0.576143     1.225737
O     2.908982     0.399918     1.339520
H     2.669044    -0.351405     0.759536
H    -5.805366     0.890233    -1.618570
O    -4.893290     1.211216    -1.487667
H    -5.001316     2.043195    -0.981289
H    -1.223824     5.431013     2.198550
O    -1.853089     4.687279     2.082669
H    -1.938611     4.274172     2.947051
H     3.472540     2.754226     0.452012
O     3.228615     2.708391    -0.487988
H     3.557379     1.862097    -0.833196
H     1.430712    -4.704722    -2.197199
O     1.498308    -3.924997    -1.627666
H     2.297630    -3.471486    -1.977762
H    -0.947718    -0.076829    -2.531516
O    -0.307128     0.569530    -2.855264
H    -0.046545     1.153661    -2.119900
H     1.626264    -4.686344    -0.123455
O     1.724213    -5.320690     0.622947
H     1.258113    -6.131047     0.326916
H    -1.273457    -3.257405    -2.848780
O    -1.100901    -3.944675    -3.505609
H    -0.983260    -4.790777    -3.032417
H    -2.820436     3.366322     4.695075
O    -1.839061     3.354983     4.666245
H    -1.553845     2.956816     5.506732
H     0.937566     5.062099     4.077769
O    -0.007144     5.300887     4.124194
H    -0.486031     4.502326     4.383366
H    -1.799485    -4.627550    -0.334908
O    -1.038926    -5.168314    -0.039790
H    -1.393867    -5.856404     0.533264
H    -3.901344     5.861471    -2.625909
O    -4.256098     5.028095    -2.953210
H    -4.096709     4.987469    -3.920496
H    -2.517024    -3.582299     1.896604
O    -2.565444    -4.467021     2.323653
H    -1.638478    -4.788870     2.353584
H    -4.740076    -2.946711    -2.887433
O    -3.886954    -3.186761    -3.287784
H    -3.564315    -3.981374    -2.818069
H     0.285088     1.412919     4.631362
O     0.799891     2.166290     4.297153
H     0.849344     2.829208     5.000379
H    -4.722716    -5.130181    -1.549190
O    -5.424397    -4.767855    -0.980723
H    -5.218629    -5.121062    -0.094061
H     2.262389    -6.504005    -3.973827
O     1.923598    -6.168072    -3.123830
H     2.349138    -6.742992    -2.455497
H     0.424964    -3.387975    -3.965131
O     1.232349    -3.028037    -4.385540
H     0.919918    -2.659086    -5.237773
H     1.914545    -1.704759     2.939410
O     2.036329    -2.657257     2.811845
H     1.397576    -2.879260     2.103049
H    -3.049805    -1.789201    -3.195137
O    -2.622050    -0.905182    -3.131360
H    -3.270997    -0.256791    -3.458627
H    -3.199568     5.017865     1.060236
O    -3.976422     5.394244     0.600005
H    -4.391251     5.958690     1.301111
H     0.840350     2.274888     2.605988
O     0.945483     2.263821     1.635432
H     1.669149     1.635037     1.477978
H     0.195535     5.666106    -0.763337
O     0.724595     6.321645    -1.272617
H     0.869410     7.123300    -0.720220
H     0.340650     7.060586     2.579781
O    -0.020152     6.678124     1.762736
H     0.640821     6.002114     1.507678
H    -2.537793     0.260720     3.347963
O    -2.762450    -0.549945     3.857791
H    -2.004510    -0.580548     4.484058
H    -0.962375     0.608593     6.038994
O    -0.689409     0.078855     5.270795
H     0.021685    -0.522424     5.565597
H     0.653528    -5.080199     1.928828
O     0.096726    -5.071028     2.735648
H     0.201856    -5.982698     3.067547
H    -2.219751    -8.055044     0.498955
O    -1.895016    -7.558753     1.276991
H    -2.678249    -7.252363     1.741127
H    -0.357614     6.869296    -2.339390
O    -1.098528     7.292083    -2.844333
H    -1.892241     7.174034    -2.284189
H    -1.124968     4.334689     0.568322
O    -0.746929     4.388535    -0.326027
H    -1.451950     4.148673    -0.961051
H    -4.447327     2.810395     3.491424
O    -4.449020     2.985453     4.455196
H    -4.541686     2.105450     4.868371
H     1.959761    -3.585550     4.359300
O     1.935705    -4.043770     5.225851
H     2.455254    -3.458392     5.814349
H     4.621590    -3.209645     0.900515
O     4.466652    -3.137222    -0.066803
H     3.611423    -2.654653    -0.157807
H    -2.760125    -0.721328    -1.340907
O    -3.090323    -0.444919    -0.469361
H    -3.885702     0.085889    -0.683437
H    -1.637145    -0.757795    -4.614593
O    -1.124773    -0.549005    -5.416865
H    -0.411997     0.043560    -5.130877
H     1.761146    -1.730189    -3.337711
O     1.855460    -0.981099    -2.717463
H     1.083061    -0.399095    -2.855817
H     3.584484    -3.125734     2.609257
O     4.542762    -3.357536     2.541271
H     4.592500    -4.318454     2.668561
H     3.322710    -6.121519     3.190493
O     3.689612    -5.917156     2.295620
H     2.956085    -5.577278     1.743725
H    -3.349640     1.628817    -4.181583
O    -4.198911     1.165183    -3.992905
H    -4.420221     1.316997    -3.038224
H    -5.092632     4.198061     0.041405
O    -5.536814     3.334514    -0.058965
H    -6.464726     3.458781    -0.347128
H     6.693302    -1.222705    -1.301029
O     5.919564    -1.065022    -0.753508
H     5.493459    -1.928941    -0.554510
H     4.544755    -3.200166    -2.410171
O     3.680215    -3.024375    -2.831151
H     3.682685    -3.647052    -3.584186
H     4.344463    -2.288219     5.677873
O     3.982584    -2.753856     6.463190
H     4.328115    -3.656314     6.394300
H    -0.774171     6.382528     5.061611
O    -1.369607     6.964867     5.593921
H    -1.374728     7.839938     5.148160
H     4.665818    -0.163448    -1.420359
O     3.903300     0.383026    -1.688825
H     3.208608    -0.214182    -2.020567
H    -0.728768     4.523147    -4.041740
O    -1.506611     5.070616    -4.256218
H    -1.351070     5.938361    -3.837454
H     0.656812     3.200003    -2.649014
O     0.671485     3.572233    -3.559199
H     0.716345     2.805635    -4.140804
H    -5.469348    -5.133825     1.813368
O    -4.775078    -5.732075     1.461127
H    -3.932858    -5.323974     1.737985
H     7.850228    -1.752997    -3.963483
O     7.590041    -1.433281    -3.066721
H     7.110141    -0.586791    -3.230126
H     3.652260    -5.110718    -5.224969
O     4.414889    -4.740167    -4.741904
H     4.791563    -5.451420    -4.190905
H    -3.849981     0.084024     4.935876
O    -4.449863     0.555047     5.563117
H    -5.116127    -0.096413     5.856154
H     3.384949    -5.956974    -0.452269
O     4.261182    -5.716522    -0.765491
H     4.342855    -4.754109    -0.626969
H     4.979828    -0.378507    -4.111743
O     4.441145    -1.087703    -4.500814
H     4.107503    -1.665572    -3.781946
H    -1.180533     1.575049    -3.929247
O    -1.824510     2.198742    -4.320758
H    -1.460574     2.523387    -5.167117
H     4.811589    -6.354990    -2.238091
O     5.147249    -6.685257    -3.100564
H     5.960181    -7.172141    -2.907277
H     8.678809    -5.155426    -2.827099
O     7.981875    -5.565059    -2.269888
H     8.009595    -6.523162    -2.367375
H     2.330243     4.719461     0.461644
O     1.747381     4.709041     1.230287
H     1.382544     3.791963     1.309898
H    -4.489812    -2.573402     4.244346
O    -5.377539    -2.226122     4.037620
H    -5.235449    -1.448961     3.457002
H    -5.915631    -3.132257     1.323732
O    -6.386579    -3.681948     1.992481
H    -6.200077    -3.245901     2.842171
H     1.636563     3.504969     6.875496
O     1.019583     4.021063     6.335431
H     0.235331     4.184025     6.902705
H     4.926858    -2.173957     3.675207
O     4.947150    -1.454387     4.338206
H     4.142076    -0.891202     4.172000
H     2.356252    -5.621313     4.922651
O     2.721875    -6.505969     4.669147
H     1.969657    -7.090459     4.536169
H     2.219240    -4.551697    -6.735466
O     2.042798    -5.034653    -5.918198
H     1.779655    -4.338622    -5.267438
H     6.373078    -4.138247    -0.429578
O     7.121000    -4.543552     0.040258
H     7.629031    -4.974128    -0.675411
H    -1.771899     4.555013     7.691439
O    -0.873954     4.648185     8.080212
H    -0.686411     5.606247     8.101535
H    -5.089021     5.716537    -5.629219
O    -4.486593     4.948786    -5.642302
H    -3.725186     5.154853    -6.205812
H     3.266189    -2.578812    -8.386503
O     3.170473    -3.106364    -7.582754
H     4.045143    -3.086797    -7.149743
H    -0.624947     8.834383    -2.304057
O    -0.498727     9.664507    -1.788636
H     0.259494     9.487726    -1.207327
H     1.991761    -0.735583     5.298644
O     1.446602    -1.290159     5.890133
H     1.456540    -0.874274     6.771256
H     5.179982    -2.076165    -5.635299
O     5.523452    -2.847445    -6.151577
H     5.241090    -3.632894    -5.631602
H     5.593492    -5.219192     4.761860
O     5.064291    -5.124487     5.583339
H     4.344361    -5.758664     5.499467
H    -4.041564     1.224102     7.002767
O    -3.849964     1.702713     7.844691
H    -4.724658     2.096190     8.099267
H    -1.818529     9.638348    -0.781590
O    -2.682137     9.520352    -0.310700
H    -3.286958     10.151108    -0.704823
H    -5.939655     4.731661    -2.970965
O    -6.847473     4.617133    -3.318871
H    -6.758659     3.910823    -3.992107
H     0.007439    -7.057373    -1.083892
O     0.468077    -7.490647    -0.333008
H    -0.212265    -7.679648     0.316940
H    -7.640117     3.850264    -2.009917
O    -7.908792     3.268858    -1.268030
H    -7.771159     2.357492    -1.602681
H     3.892326    -0.873109     7.033001
O     3.906236     0.090625     7.016824
H     4.723453     0.373850     6.589918
H     2.265898     5.788205    -1.175701
O     3.198610     5.489123    -1.054940
H     3.375472     4.944138    -1.844812
H     6.463906    -5.959704     0.756478
O     6.087669    -6.689882     1.293085
H     5.183432    -6.406043     1.512898
H    -3.913806     4.810354     7.758824
O    -3.347164     4.339904     7.105096
H    -3.548504     3.398659     7.219414
H     5.664272    -7.972617     0.227632
O     5.375968    -8.659737    -0.409352
H     4.549606    -8.331673    -0.807663
H    -0.622132     2.098981     7.701951
O    -1.251795     2.032937     6.963688
H    -2.123643     1.901884     7.356669
H    -6.430981    -0.055604     1.053502
O    -6.744710    -0.142024     0.139041
H    -7.665635    -0.405886     0.151204
H    -5.430275    -3.014943    -0.577502
O    -5.176733    -2.310098     0.045233
H    -5.740665    -1.534885    -0.150711
H     4.315951     5.562440     0.335726
O     4.645619     5.664859     1.242304
H     3.952780     6.183027     1.688140
H    -9.084966    -1.676609    -2.268662
O    -8.539699    -1.475034    -1.480761
H    -8.675351    -2.208014    -0.840451
H    -5.511918     3.497117    -5.551549
O    -6.036327     2.792373    -5.135602
H    -5.375991     2.204136    -4.715873
H     3.162158    -0.925632    -5.613287
O     2.307712    -1.041729    -6.082755
H     2.389484    -1.893787    -6.551442
H     8.094584    -1.424309    -5.959807
O     8.094250    -2.285842    -5.498675
H     7.236623    -2.681189    -5.751752
H     7.618970     0.918256    -6.254979
O     7.426063     0.069162    -6.664717
H     6.444587     0.025935    -6.705768
H    -7.932231    -3.617435     0.929852
O    -8.605913    -3.508192     0.241295
H    -8.510578    -4.271578    -0.356003
H    -2.391708     8.775007     1.258362
O    -2.248694     8.189219     2.015097
H    -1.481368     7.629696     1.798762
H    -4.455514     6.499773     3.463510
O    -4.618407     6.922265     2.603894
H    -3.850376     7.502352     2.465084
H     3.403174     3.418141    -3.556024
O     3.256291     4.388916    -3.467911
H     2.292510     4.459928    -3.581197
H    -6.150247    -1.564714    -3.443354
O    -6.240747    -2.138636    -2.656308
H    -7.025753    -1.823970    -2.153950
H     6.411060     1.041424     4.788553
O     6.016622     1.585898     5.486889
H     6.212730     2.501967     5.192667
H     1.362716     1.697110    -5.802909
O     1.160389     1.106631    -5.046454
H     1.518782     0.239527    -5.310256
H    -2.560752     3.048897     10.478178
O    -2.353309     2.138784     10.209495
H    -2.949835     1.939771     9.476044
H     7.567560    -0.522980     3.146053
O     6.820228     0.057925     3.309012
H     6.122766    -0.535887     3.687917
H    -5.754060    -8.002071    -0.667546
O    -5.022534    -8.072939    -0.017949
H    -5.022588    -7.254196     0.501543
H    -5.195144    -0.090923    -4.719287
O    -5.816127    -0.799539    -4.958177
H    -6.650128    -0.353074    -5.162884
H     1.885518    -0.235854    -7.482952
O     1.691584     0.233326    -8.330147
H     2.268399    -0.179488    -8.978370
H     4.868028    -1.461074    -9.250883
O     3.946002    -1.226829    -9.538886
H     3.929611    -1.349750    -10.487361
H     7.483779    -2.590255     4.272490
O     7.633760    -2.631446     3.313826
H     7.137689    -3.421237     3.043655
H     6.622859    -5.915322     2.770763
O     6.686604    -5.236777     3.468818
H     7.560004    -5.326751     3.890778
H    -1.814612     8.993025     3.464123
O    -1.569169     9.300122     4.362278
H    -2.419228     9.441512     4.812674
H    -7.393106     1.608664    -5.274103
O    -7.974227     0.869952    -5.027550
H    -8.873597     1.276127    -4.958577
H     6.919665    -1.161283    -8.342326
O     6.333717    -1.879365    -8.605206
H     6.098631    -2.323527    -7.772187
H    -1.637315     6.231972    -7.040936
O    -2.042406     5.410996    -6.765047
H    -1.799720     5.283385    -5.799580
H    -0.060847     3.371587     9.028258
O     0.127786     2.451228     9.287569
H    -0.674415     2.195878     9.792528
H     6.709011    -2.827880    -2.635385
O     6.171633    -3.566367    -2.292761
H     6.635267    -4.381926    -2.532987
H    -4.115409    -3.054092    -4.926666
O    -4.263793    -2.945091    -5.892785
H    -4.805589    -2.148844    -5.955809
H     1.912725     2.228117     8.486015
O     2.580433     2.331187     7.798172
H     2.997260     1.457591     7.690335
H    -6.978592    -5.143933    -1.382067
O    -7.895245    -5.407243    -1.630338
H    -8.021479    -5.009189    -2.516331
H    -3.858497     5.327769     5.673198
O    -3.817232     6.092405     5.078101
H    -2.881853     6.381202     5.175589
H    -7.915013     0.149182    -1.984865
O    -7.417791     0.867296    -2.399115
H    -7.641353     0.853259    -3.353534
H     5.795730     0.104782     0.462091
O     5.575263     0.830561     1.078667
H     6.080588     0.636346     1.894720
H    -6.268700     3.408915     7.370084
O    -6.148049     2.893655     8.201677
H    -6.753992     2.136741     8.114740
H     2.186296    -8.079902    -0.766792
O     2.863995    -8.074220    -1.462843
H     2.636689    -8.791177    -2.071643
H    -2.782863    -3.958678    -6.168953
O    -2.034063    -4.528612    -5.930808
H    -1.760436    -4.234993    -5.033493
H    -5.683728     3.844905     5.283220
O    -6.332716     4.248604     5.895700
H    -6.163267     5.191535     5.877917
H    -1.095020    -7.108440    -3.109515
O    -0.620865    -6.437966    -2.583603
H     0.289506    -6.378658    -2.959113
H     4.392773     2.025635     5.162711
O     3.452961     2.269276     5.036738
H     3.065098     2.295285     5.916810
H     4.070882     4.674960     6.320084
O     4.160143     5.401084     5.698470
H     3.594538     5.160823     4.926029
H     2.731079     3.632346     3.939791
O     2.560631     4.572771     3.768680
H     2.446740     4.667721     2.801141
H     9.359354     0.152669    -1.002977
O     8.552251     0.323831    -0.513964
H     8.368094    -0.491544    -0.018141
H    -2.156629     5.405841     10.635240
O    -2.884144     4.783447     10.865972
H    -3.106186     4.967101     11.779009
H     7.908878    -3.050559     0.404601
O     8.334444    -2.205413     0.657808
H     8.264302    -2.195528     1.619713
H     5.339079     3.659273     3.555173
O     5.993254     3.922255     4.224420
H     5.584021     4.646880     4.719453
H    -4.262291     5.118989     9.760143
O    -4.890242     5.270277     9.033705
H    -5.507963     4.526501     9.032633
H    -7.058766    -3.430662    -3.480755
O    -7.681678    -4.039771    -3.929300
H    -7.160383    -4.489676    -4.626379
H    -0.022631     6.200054     10.761828
O    -0.883818     6.535505     10.508280
H    -0.760737     6.961310     9.640645
H     2.579851     1.470624    -4.078177
O     3.459469     1.818423    -3.836607
H     3.772228     1.305015    -3.061992
H    -7.051245    -0.115431     7.208426
O    -7.554674     0.669006     7.480657
H    -8.174218     0.851875     6.773233
H    -2.849666    -9.842540    -0.770232
O    -2.780753    -8.902915    -0.939318
H    -3.684057    -8.528582    -0.702483
H    -10.062610     3.138429    -4.942023
O    -10.187501     2.223274    -4.657166
H    -10.407516     2.313658    -3.709020
H    -2.258822    -2.899999     4.627944
O    -3.055015    -3.460216     4.740386
H    -3.029250    -3.999827     3.915066
H    -0.284740    -8.030685     2.463066
O     0.550029    -7.850501     2.914312
H     1.251403    -8.113659     2.286887
H     6.616663    -2.376049     6.461115
O     7.061650    -3.091630     6.002528
H     6.427459    -3.822782     5.965308
H    -5.361050    -1.916413     6.952617
O    -6.028094    -1.413422     6.461581
H    -6.014226    -1.797261     5.555865
H     0.852712     3.004773    -7.103905
O     1.768174     2.667052    -7.153617
H     1.752101     1.916386    -7.775666
H    -3.965741     8.835531     6.629766
O    -3.958482     8.828135     5.672458
H    -4.089620     7.900250     5.408951
H    -2.012117     10.329816    -2.778819
O    -2.911092     10.516097    -3.085690
H    -2.831733     11.145733    -3.801611
H     9.320756    -4.093522     4.133898
O     9.032173    -4.765991     4.758530
H     8.603710    -4.286626     5.478559
H    -0.789953    -6.006656    -5.791485
O    -0.092380    -6.576512    -5.451454
H     0.747650    -6.122597    -5.667260
H     1.841627     8.280637     0.652828
O     1.544804     8.599895    -0.227829
H     2.362213     8.629373    -0.754659
H     3.511733     2.884913    -6.637936
O     4.335275     2.591176    -6.223007
H     4.083648     2.323808    -5.314016
H     3.750219     7.106499    -1.226084
O     3.963803     8.039585    -1.443291
H     4.336910     7.976183    -2.334523
H     4.393377    -0.065308    -7.867707
O     4.767195     0.083020    -6.997216
H     4.591038     1.017514    -6.759628
H     6.006163     1.901962    -0.433351
O     6.576661     2.087112    -1.193175
H     7.396735     1.602326    -0.992875
H     6.590435    -8.472337    -1.508908
O     7.231933    -8.269964    -2.243189
H     7.593836    -9.108413    -2.524883
H    -5.357234    -5.762778    -5.381591
O    -5.967906    -5.087761    -5.702620
H    -5.409904    -4.325116    -5.941135
H     0.656069     7.223958     7.589472
O    -0.247024     7.259105     7.944353
H    -0.798432     7.274144     7.124112
H    -8.938458    -2.775194    -4.109098
O    -9.453397    -1.961784    -3.948188
H    -9.159856    -1.302745    -4.581001
H    -2.484269    -5.967107    -2.101854
O    -3.357914    -5.673580    -2.377438
H    -3.543997    -6.053268    -3.261277
H    -3.043059    -5.891414    -5.371444
O    -3.649981    -6.493818    -4.898941
H    -3.175083    -7.316792    -4.724963
H    -1.369900     3.715765    -6.986901
O    -0.836519     2.957603    -6.709214
H    -1.076260     2.171270    -7.256279
H    -0.201395     0.391626    -8.197039
O    -1.096934     0.635122    -7.919043
H    -1.279998     0.116631    -7.119561
H    -10.420659     4.129719    -2.784614
O    -10.496372     3.354651    -2.212604
H    -9.669742     3.325074    -1.699580
H     4.560193     4.071574     1.744236
O     4.344564     3.153434     2.026857
H     5.057568     2.571298     1.751175
H     6.475648     1.344447    -4.172667
O     6.164618     0.726364    -3.476791
H     6.195206     1.226097    -2.635571
H     9.580458    -2.285512    -0.848260
O     9.863108    -2.076971    -1.747521
H     9.067206    -1.735560    -2.196851
H     9.919696    -3.393708    -3.010182
O     9.651027    -4.047317    -3.682871
H     9.264636    -3.540799    -4.407832
H    -7.792583    -8.511918    -1.637398
O    -7.050649    -7.922916    -1.766767
H    -7.422045    -7.007540    -1.762284
H     4.182599     6.046317    -3.809780
O     4.848212     6.743260    -3.724722
H     5.680553     6.284077    -3.581315
H     0.023268    -8.182765    -5.150522
O     0.039407    -9.165008    -5.013652
H     0.191723    -9.534448    -5.883491
H    -2.423571    -8.654831    -2.660525
O    -2.182757    -8.397025    -3.570315
H    -1.539452    -9.022682    -3.922378
H     2.081064    -10.834736    -3.405390
O     2.043297    -9.879634    -3.388931
H     1.261410    -9.606275    -3.918931
H     6.841402     3.272760    -4.536044
O     6.897988     2.590290    -5.232821
H     6.108264     2.726278    -5.778292
H    -3.798346    -3.498719     7.875826
O    -3.816641    -2.793773     7.228842
H    -3.601328    -3.193436     6.358041
H    -0.669772    -3.377174    -6.687927
O    -0.034324    -2.650197    -6.696205
H    -0.512278    -1.869596    -6.361173
H     0.563719     0.513914     8.774392
O     0.565914    -0.201608     8.134510
H    -0.358607    -0.483844     8.048612
H    -5.800813     7.403860    -4.296334
O    -6.305343     6.785599    -4.856555
H    -6.600591     6.059980    -4.262952
H    -4.237853     9.132975    -3.309583
O    -4.779644     8.341183    -3.201700
H    -4.378268     7.862740    -2.458299
H    -9.687715     5.858723    -4.701543
O    -10.227558     5.058746    -4.536261
H    -11.105103     5.264074    -4.860639
H     2.744836     6.543631     6.142016
O     1.784989     6.647312     6.234808
H     1.435273     5.736141     6.135076
H     4.824013     8.528720     0.085476
O     5.136685     8.531943     1.008039
H     5.537276     7.665673     1.145215
H     4.069523    -7.462918    -4.261634
O     3.312147    -7.744664    -4.806427
H     3.023717    -8.581679    -4.427539
H     0.377985     8.695047     4.213033
O     1.051942     8.044147     3.991668
H     1.271106     7.554344     4.810096
H     5.240114     4.152623    -3.131583
O     6.201049     4.116197    -3.073765
H     6.402196     3.537081    -2.322035
H    -2.667461    -1.473571     7.593419
O    -2.152745    -0.680586     7.803624
H    -2.773056    -0.049265     8.178356
H    -8.990935     7.996510    -4.209919
O    -8.928295     7.407179    -4.963053
H    -7.971781     7.235817    -5.092919
H     3.426699    -8.985055     1.173429
O     2.752239    -8.345110     1.405701
H     3.228018    -7.544347     1.693819
H     3.593495     8.171334     1.826503
O     2.798616     7.613826     1.938258
H     2.349963     7.857545     2.760720
N    -0.650024    -5.429296     5.758581
H    -1.368029    -4.808805     5.584127
H     0.144454    -4.875013     5.752647
