12

H     8.746570    -5.090859    -2.840556
O     8.045775    -5.497339    -2.310627
H     8.109293    -6.461667    -2.353578
H     6.677655    -8.465448    -1.500719
O     7.323637    -8.176694    -2.202656
H     7.620857    -8.979542    -2.632628
H     9.982060    -3.184130    -3.159461
O     9.715940    -3.838133    -3.837083
H     9.286961    -3.324850    -4.541269
N     10.528190    -6.605324    -4.036328
H     10.494291    -5.641134    -4.143896
H     11.464244    -6.802284    -3.949227
