36

H    -1.741335    -4.603685    -0.427639
O    -0.968945    -5.166264    -0.201496
H    -1.306650    -5.789162     0.455872
H    -2.441135    -3.589530     1.934618
O    -2.503006    -4.507703     2.284306
H    -1.560144    -4.792648     2.372884
H    -4.638551    -5.161417    -1.585688
O    -5.350942    -4.803763    -1.022108
H    -5.159072    -5.174126    -0.143741
H     0.697363    -4.963076     1.943708
O     0.157210    -5.090025     2.751411
H     0.389575    -5.999467     3.021964
H    -2.065711    -8.209711     0.625423
O    -1.651066    -7.695074     1.347661
H    -2.314136    -7.644695     2.069146
H    -5.433022    -5.045592     1.846295
O    -4.791338    -5.754909     1.555245
H    -3.916453    -5.313813     1.655818
H    -5.837924    -3.091981     1.300405
O    -6.312982    -3.643918     1.976284
H    -6.126634    -3.185180     2.820895
H    -5.709872    -8.073224    -0.800967
O    -4.968881    -8.148822    -0.155997
H    -5.006575    -7.343553     0.382950
H    -2.737183    -9.898365    -0.877471
O    -2.635617    -8.948208    -0.981498
H    -3.552924    -8.586678    -0.803658
H    -2.072717    -2.960333     4.600623
O    -2.932436    -3.426305     4.693887
H    -2.925218    -4.023948     3.921371
H    -0.050886    -8.023885     2.484194
O     0.760146    -7.814563     2.975444
H     1.480459    -8.089885     2.374781
N    -3.591982    -7.535212     3.297443
H    -4.219293    -6.940010     2.835780
H    -3.367539    -7.070438     4.109441
