603

H     0.206288     3.029385    -0.694916
O     0.730557     2.361175    -1.186399
H     1.668630     2.490071    -0.909861
H    -0.079440    -1.301698     3.141395
O     0.313316    -0.602146     2.596611
H    -0.165187     0.211437     2.827627
H    -2.393794     2.407682    -0.559331
O    -2.185341     1.939479     0.266273
H    -2.199795     0.990938     0.043555
H    -4.664547     0.548313     2.156197
O    -4.981717    -0.384815     2.169576
H    -4.474673    -0.863872     1.505837
H     0.065649    -0.307435     0.940674
O    -0.129872    -0.071752     0.013047
H     0.210736     0.824261    -0.107985
H    -0.158812    -3.570685     3.772474
O    -0.439045    -2.739734     4.190435
H     0.204874    -2.567937     4.893960
H    -4.887070     2.530123     1.299455
O    -4.248883     2.123062     1.916757
H    -3.404544     2.104147     1.406676
H    -3.241159     3.891063    -2.239244
O    -2.503337     3.296383    -2.006667
H    -2.142313     3.006372    -2.864744
H    -0.120584    -3.804455     0.498345
O     0.217815    -2.985705     0.915144
H    -0.570625    -2.499403     1.224371
H    -2.379650    -1.535492     2.454141
O    -2.188190    -2.002794     1.614518
H    -2.444606    -1.417146     0.883220
H     2.080641    -1.445233    -1.124558
O     2.309865    -1.695865    -0.205939
H     1.519988    -2.123595     0.176448
H    -1.391760     1.827419     1.892916
O    -1.487280     1.431155     2.769074
H    -1.474197     2.144183     3.433355
H     0.217820    -2.706230    -1.576733
O    -0.537443    -2.094349    -1.634562
H    -0.359971    -1.367585    -1.000641
H    -3.430512    -2.928001    -0.407442
O    -2.711355    -3.420248    -0.824749
H    -2.001007    -2.789693    -1.042296
H     2.768358     0.134699     2.929104
O     2.864778    -0.046127     3.891366
H     2.954791     0.847368     4.294879
H    -3.527068     6.377376    -0.574949
O    -3.289420     7.038916    -1.277385
H    -3.145480     7.884520    -0.807954
H     3.902335     0.586905     1.183796
O     2.951419     0.405317     1.297211
H     2.716259    -0.348473     0.718725
H    -5.774086     0.836514    -1.633900
O    -4.863808     1.164812    -1.507791
H    -4.975839     1.993154    -0.996645
H    -1.216314     5.400082     2.185332
O    -1.841190     4.652951     2.067810
H    -1.920737     4.235159     2.930675
H     3.495181     2.764417     0.417877
O     3.249294     2.719861    -0.521791
H     3.583603     1.876959    -0.870031
H     1.503363    -4.700903    -2.250094
O     1.565812    -3.922336    -1.678456
H     2.361423    -3.461798    -2.028040
H    -0.910109    -0.090907    -2.561846
O    -0.277244     0.562578    -2.886373
H    -0.017632     1.145527    -2.149664
H     1.705581    -4.685769    -0.178275
O     1.810777    -5.321345     0.565825
H     1.348580    -6.133332     0.270011
H    -1.213482    -3.272258    -2.889016
O    -1.037396    -3.956263    -3.548327
H    -0.912251    -4.802610    -3.077881
H    -2.791148     3.315596     4.679106
O    -1.809833     3.313491     4.647456
H    -1.518986     2.913224     5.485180
H     0.952307     5.041861     4.057683
O     0.005894     5.273584     4.106264
H    -0.466130     4.470665     4.364962
H    -1.723548    -4.652691    -0.380055
O    -0.958829    -5.192267    -0.091796
H    -1.307673    -5.878491     0.486479
H    -3.902675     5.827832    -2.628035
O    -4.259202     4.997894    -2.961874
H    -4.093706     4.958482    -3.927622
H    -2.430464    -3.687410     1.923902
O    -2.449468    -4.590804     2.301458
H    -1.510005    -4.828345     2.444912
H    -4.682699    -2.986963    -2.918615
O    -3.828291    -3.219241    -3.321167
H    -3.498946    -4.012787    -2.854612
H     0.330032     1.384757     4.601379
O     0.835848     2.144897     4.267276
H     0.883245     2.804700     4.973462
H    -4.644963    -5.174984    -1.586689
O    -5.347903    -4.820307    -1.015116
H    -5.137436    -5.173809    -0.130022
H     2.344072    -6.488691    -4.033663
O     2.004741    -6.158340    -3.181652
H     2.437391    -6.730970    -2.516212
H     0.482997    -3.386625    -4.010382
O     1.286550    -3.019516    -4.431878
H     0.969083    -2.650291    -5.282175
H     1.960501    -1.747377     2.978217
O     2.116576    -2.678553     2.762858
H     1.432534    -2.893670     2.094470
H    -3.002387    -1.816292    -3.226768
O    -2.582563    -0.928003    -3.162808
H    -3.238433    -0.285970    -3.485688
H    -3.191810     4.975920     1.049801
O    -3.972284     5.348889     0.592363
H    -4.389210     5.907242     1.297591
H     0.871787     2.258034     2.577223
O     0.975218     2.251842     1.606233
H     1.703007     1.628693     1.445166
H     0.194089     5.655363    -0.779748
O     0.715166     6.317069    -1.289373
H     0.857331     7.117391    -0.734144
H     0.336845     7.040298     2.567244
O    -0.023116     6.658447     1.749466
H     0.641884     5.987514     1.491184
H    -2.485572     0.219815     3.321823
O    -2.708360    -0.593406     3.827474
H    -1.949480    -0.631576     4.451318
H    -0.906944     0.563647     6.009781
O    -0.630511     0.043373     5.236760
H     0.082388    -0.559506     5.526412
H     0.710271    -4.991056     1.978819
O     0.165926    -5.099194     2.782073
H     0.310115    -6.019302     3.056239
H    -2.113001    -8.088743     0.444626
O    -1.792857    -7.599027     1.229705
H    -2.580550    -7.287561     1.683194
H    -0.371894     6.859501    -2.350700
O    -1.118231     7.277511    -2.852726
H    -1.908370     7.152292    -2.289627
H    -1.113019     4.309576     0.551635
O    -0.738461     4.370142    -0.343876
H    -1.442845     4.125731    -0.977387
H    -4.416532     2.751143     3.478337
O    -4.417750     2.923461     4.442464
H    -4.501631     2.041083     4.853083
H     2.017771    -3.574629     4.243835
O     1.951848    -4.045316     5.097719
H     2.457192    -3.507478     5.728751
H     4.690499    -3.192168     0.845075
O     4.532602    -3.118022    -0.121983
H     3.673658    -2.641451    -0.208472
H    -2.715193    -0.752390    -1.369682
O    -3.044680    -0.479986    -0.496843
H    -3.845601     0.043667    -0.706745
H    -1.600276    -0.770172    -4.646663
O    -1.091830    -0.554450    -5.449537
H    -0.382370     0.042017    -5.163426
H     1.808055    -1.720779    -3.381584
O     1.898237    -0.972494    -2.759767
H     1.121046    -0.396198    -2.894176
H     3.661061    -3.117143     2.553665
O     4.620392    -3.345723     2.483416
H     4.675249    -4.305635     2.612080
H     3.423826    -6.115355     3.130925
O     3.781795    -5.915837     2.231318
H     3.045536    -5.571590     1.685868
H    -3.335139     1.603716    -4.203364
O    -4.187817     1.145407    -4.017867
H    -4.398321     1.281132    -3.058336
H    -5.081257     4.145456     0.035121
O    -5.519383     3.279649    -0.072245
H    -6.450107     3.398882    -0.352637
H     6.741599    -1.182979    -1.355092
O     5.967646    -1.032528    -0.805871
H     5.548650    -1.900167    -0.607714
H     4.604933    -3.172484    -2.465009
O     3.738128    -3.002096    -2.883605
H     3.743711    -3.622390    -3.638549
H     4.424432    -2.282966     5.625186
O     4.079507    -2.747181     6.418212
H     4.415123    -3.652217     6.339096
H    -0.766430     6.345964     5.049827
O    -1.364999     6.922496     5.585097
H    -1.377159     7.798869     5.142413
H     4.705890    -0.138017    -1.466089
O     3.938875     0.403553    -1.731909
H     3.247679    -0.198108    -2.062651
H    -0.731738     4.514708    -4.059771
O    -1.514176     5.057966    -4.269519
H    -1.361386     5.925481    -3.849083
H     0.668548     3.198727    -2.674600
O     0.676208     3.573852    -3.583910
H     0.727412     2.809209    -4.167623
H    -5.383124    -5.192789     1.777007
O    -4.685190    -5.787827     1.424787
H    -3.845584    -5.371131     1.696882
H     7.895766    -1.695958    -4.022538
O     7.635463    -1.381082    -3.124140
H     7.148762    -0.537732    -3.283490
H     3.720002    -5.081298    -5.283745
O     4.481067    -4.706680    -4.801375
H     4.864447    -5.416680    -4.253454
H    -3.794145     0.025273     4.912522
O    -4.396732     0.490513     5.542491
H    -5.057332    -0.167390     5.834092
H     3.471178    -5.943044    -0.512246
O     4.344594    -5.696012    -0.828268
H     4.420138    -4.733434    -0.686131
H     5.014780    -0.342698    -4.159151
O     4.480322    -1.054613    -4.549147
H     4.152943    -1.637155    -3.831173
H    -1.161627     1.563339    -3.954291
O    -1.811427     2.182881    -4.343151
H    -1.450775     2.512368    -5.189103
H     4.896411    -6.325518    -2.303482
O     5.231652    -6.651748    -3.167705
H     6.049261    -7.132195    -2.978062
H     8.752770    -5.095398    -2.898856
O     8.060151    -5.512218    -2.341496
H     8.095328    -6.469742    -2.441678
H     2.338769     4.720407     0.437025
O     1.756655     4.704051     1.206058
H     1.400177     3.783442     1.285170
H    -4.422444    -2.628790     4.212463
O    -5.315982    -2.289702     4.007335
H    -5.177983    -1.509783     3.430584
H    -5.845552    -3.195616     1.295852
O    -6.309429    -3.751621     1.964172
H    -6.123518    -3.314595     2.814404
H     1.670469     3.481178     6.848260
O     1.048672     3.995528     6.311864
H     0.264223     4.149291     6.881305
H     4.995338    -2.161838     3.620682
O     5.013843    -1.442210     4.283419
H     4.202175    -0.886672     4.123703
H     2.382833    -5.567788     4.842513
O     2.763895    -6.451896     4.585067
H     2.019549    -7.034081     4.410226
H     2.278977    -4.528570    -6.788764
O     2.108199    -5.015294    -5.972503
H     1.841509    -4.323064    -5.319098
H     6.445376    -4.103048    -0.491664
O     7.197633    -4.504702    -0.025668
H     7.706960    -4.928726    -0.744282
H    -1.743995     4.503120     7.676052
O    -0.846106     4.602293     8.063402
H    -0.665616     5.561526     8.086828
H    -4.967105     5.743338    -5.632840
O    -4.418545     4.932864    -5.667946
H    -3.622088     5.127625    -6.197504
H     3.306756    -2.542750    -8.436410
O     3.217075    -3.073307    -7.633933
H     4.092741    -3.048452    -7.203191
H    -0.653195     8.822524    -2.308814
O    -0.533516     9.651537    -1.790407
H     0.228040     9.479044    -1.211886
H     2.056142    -0.902840     5.206378
O     1.481737    -1.427618     5.793162
H     1.573438    -1.080930     6.690066
H     5.223766    -2.034001    -5.688441
O     5.571611    -2.801097    -6.208038
H     5.296711    -3.590213    -5.689713
H     5.687758    -5.205204     4.697963
O     5.163393    -5.118758     5.523160
H     4.442482    -5.751374     5.437122
H    -3.990098     1.157527     6.982344
O    -3.800274     1.635350     7.825533
H    -4.677251     2.020860     8.083554
H    -1.849533     9.612204    -0.780805
O    -2.712216     9.484882    -0.310235
H    -3.321249     10.115430    -0.697819
H    -5.849032     4.682479    -2.986057
O    -6.757812     4.542404    -3.339757
H    -6.586916     3.821750    -3.991112
H     0.102600    -7.067248    -1.142144
O     0.565203    -7.501280    -0.392333
H    -0.115592    -7.695495     0.255027
H    -7.550618     3.753208    -1.977004
O    -7.912620     3.235908    -1.226003
H    -7.766985     2.304958    -1.517443
H     3.958517    -0.878761     6.986106
O     3.966697     0.085393     6.974960
H     4.780143     0.374700     6.545131
H     2.262077     5.794098    -1.197552
O     3.197175     5.502118    -1.080156
H     3.376364     4.960459    -1.871775
H     6.553578    -5.927131     0.687549
O     6.183928    -6.662584     1.221707
H     5.278690    -6.385485     1.445696
H    -3.887805     4.742275     7.749724
O    -3.319548     4.278680     7.092618
H    -3.512426     3.335307     7.204788
H     5.767583    -7.944376     0.155307
O     5.481700    -8.632805    -0.481664
H     4.653295    -8.308487    -0.878504
H    -0.575460     2.055812     7.675703
O    -1.206874     1.989916     6.939151
H    -2.076194     1.848367     7.333913
H    -6.382926    -0.122535     1.034190
O    -6.701295    -0.204458     0.120501
H    -7.618624    -0.480514     0.136174
H    -5.366758    -3.067270    -0.607819
O    -5.116479    -2.362813     0.016438
H    -5.686705    -1.591303    -0.175249
H     4.317588     5.579362     0.308278
O     4.648942     5.682082     1.214134
H     3.953081     6.192836     1.663689
H    -9.033545    -1.748070    -2.287221
O    -8.488473    -1.546140    -1.498230
H    -8.618403    -2.282883    -0.861724
H    -5.344099     3.409579    -5.612290
O    -5.917149     2.707823    -5.241719
H    -5.276506     2.113549    -4.782096
H     3.197409    -0.898795    -5.657714
O     2.342636    -1.019759    -6.125414
H     2.429671    -1.869707    -6.597015
H     8.132580    -1.359385    -6.018390
O     8.139899    -2.222368    -5.560050
H     7.284575    -2.623281    -5.812079
H     7.638651     0.980430    -6.305030
O     7.451033     0.131217    -6.716970
H     6.469832     0.080716    -6.755613
H    -7.859447    -3.694074     0.904977
O    -8.535820    -3.587581     0.218671
H    -8.436626    -4.347986    -0.381648
H    -2.410464     8.738716     1.257910
O    -2.262467     8.151027     2.011978
H    -1.490811     7.598205     1.793341
H    -4.453141     6.440686     3.460783
O    -4.620794     6.864564     2.602582
H    -3.857424     7.450989     2.464781
H     3.410821     3.440157    -3.587762
O     3.256509     4.409562    -3.496530
H     2.292024     4.473549    -3.607091
H    -6.104102    -1.615750    -3.467770
O    -6.187999    -2.190376    -2.680450
H    -6.975658    -1.883268    -2.177032
H     6.457833     1.060552     4.741607
O     6.061666     1.600602     5.442377
H     6.250235     2.518748     5.150152
H     1.377770     1.710702    -5.834866
O     1.181438     1.116540    -5.079743
H     1.546098     0.253027    -5.346872
H    -2.514691     2.982920     10.459839
O    -2.301358     2.074932     10.188707
H    -2.897238     1.873569     9.455324
H     7.622199    -0.489783     3.091375
O     6.871412     0.085841     3.257007
H     6.178559    -0.514109     3.636021
H    -5.652635    -8.057660    -0.711426
O    -4.919044    -8.124682    -0.063274
H    -4.924653    -7.306462     0.457172
H    -5.162794    -0.131266    -4.742132
O    -5.770889    -0.849553    -4.983389
H    -6.618538    -0.419105    -5.175875
H     1.911042    -0.212880    -7.522111
O     1.711336     0.257713    -8.367199
H     2.289263    -0.148808    -9.018416
H     4.897979    -1.410318    -9.301440
O     3.973485    -1.182021    -9.586264
H     3.955533    -1.302021    -10.535095
H     7.556318    -2.560704     4.211825
O     7.705522    -2.598499     3.252771
H     7.213302    -3.390197     2.981274
H     6.718210    -5.888047     2.701057
O     6.777879    -5.211344     3.400932
H     7.652737    -5.295307     3.821182
H    -1.830805     8.953912     3.463203
O    -1.585367     9.260700     4.361274
H    -2.435204     9.393464     4.814801
H    -7.396940     1.478471    -5.290979
O    -7.924254     0.738068    -4.955889
H    -8.870350     1.077962    -4.950772
H     6.949719    -1.097812    -8.397067
O     6.368473    -1.819441    -8.660673
H     6.138889    -2.267919    -7.828446
H    -1.662471     6.225034    -7.053241
O    -2.059641     5.400973    -6.775317
H    -1.809479     5.273733    -5.811528
H    -0.020924     3.328821     9.004877
O     0.175734     2.409614     9.262158
H    -0.623730     2.146200     9.767227
H     6.765965    -2.783395    -2.694736
O     6.234902    -3.527118    -2.353560
H     6.704422    -4.338267    -2.597112
H    -4.061888    -3.084381    -4.959986
O    -4.211936    -2.973958    -5.925524
H    -4.761373    -2.182315    -5.984720
H     1.960281     2.201153     8.454060
O     2.625536     2.312453     7.765153
H     3.048579     1.442204     7.652770
H    -6.900803    -5.206120    -1.414047
O    -7.815401    -5.477007    -1.660994
H    -7.947227    -5.076226    -2.545228
H    -3.841515     5.266895     5.665024
O    -3.807424     6.033898     5.072331
H    -2.873828     6.328841     5.168709
H    -7.828292    -0.016545    -1.909495
O    -7.396764     0.765048    -2.292541
H    -7.580355     0.740513    -3.261668
H     5.838476     0.132529     0.414364
O     5.614652     0.855246     1.033209
H     6.123065     0.661915     1.847779
H    -6.233232     3.324486     7.362102
O    -6.107004     2.808113     8.192098
H    -6.706722     2.046308     8.104070
H     2.284928    -8.074846    -0.832456
O     2.963582    -8.063248    -1.527101
H     2.740537    -8.778730    -2.139284
H    -2.725986    -3.974941    -6.208026
O    -1.972110    -4.539935    -5.973449
H    -1.698737    -4.246747    -5.076025
H    -5.656357     3.770811     5.275936
O    -6.307579     4.168555     5.890088
H    -6.143470     5.112491     5.876242
H    -1.006395    -7.120955    -3.162902
O    -0.535377    -6.449783    -2.635084
H     0.372963    -6.381063    -3.013985
H     4.433053     2.028385     5.124316
O     3.491665     2.267460     5.001390
H     3.105258     2.284994     5.882349
H     4.094467     4.671311     6.290499
O     4.176401     5.400271     5.671154
H     3.610776     5.157891     4.899447
H     2.755950     3.626485     3.911121
O     2.578245     4.566132     3.742538
H     2.461362     4.662526     2.775670
H     9.398239     0.211634    -1.059903
O     8.590804     0.375346    -0.568926
H     8.414085    -0.442476    -0.074412
H    -2.127410     5.342356     10.623419
O    -2.849878     4.714121     10.854117
H    -3.070574     4.893077     11.768406
H     7.975226    -3.006391     0.341728
O     8.395340    -2.158982     0.596157
H     8.327243    -2.152233     1.558305
H     5.362767     3.673897     3.519614
O     6.017405     3.941085     4.186631
H     5.603328     4.659889     4.686100
H    -4.233268     5.042175     9.752778
O    -4.864513     5.191176     9.028718
H    -5.476176     4.442382     9.026587
H    -6.998961    -3.487346    -3.507515
O    -7.617188    -4.102070    -3.954610
H    -7.095148    -4.544100    -4.655909
H     0.000654     6.151584     10.747328
O    -0.863406     6.482136     10.497116
H    -0.745542     6.911082     9.630320
H     2.601022     1.487956    -4.113654
O     3.478391     1.842079    -3.873354
H     3.797327     1.328497    -3.101220
H    -6.988707    -0.204783     7.191342
O    -7.498095     0.574370     7.468436
H    -8.119944     0.755518     6.762587
H    -2.735766    -9.875562    -0.827864
O    -2.672406    -8.934205    -0.989320
H    -3.579161    -8.567560    -0.751832
H    -9.973857     2.584974    -5.530906
O    -10.260971     1.866346    -4.935403
H    -10.346215     2.322725    -4.066546
H    -2.076264    -3.014834     4.603610
O    -2.951337    -3.454780     4.671987
H    -2.943190    -4.074419     3.917181
H    -0.180054    -7.977138     2.490048
O     0.645162    -7.765295     2.939445
H     1.364973    -8.062406     2.355121
H     6.692827    -2.360358     6.402534
O     7.143522    -3.070950     5.941481
H     6.513882    -3.806080     5.903210
H    -5.287014    -1.989339     6.923432
O    -5.962058    -1.492214     6.436749
H    -5.943781    -1.871436     5.528516
H     0.854454     3.018465    -7.130738
O     1.772218     2.687976    -7.183440
H     1.760648     1.939077    -7.807815
H    -3.971833     8.771017     6.633164
O    -3.967824     8.766191     5.675809
H    -4.092079     7.837795     5.410544
H    -2.055627     10.308173    -2.775603
O    -2.956305     10.486237    -3.082711
H    -2.882561     11.121917    -3.793867
H     9.403846    -4.050148     4.064319
O     9.122678    -4.726985     4.687651
H     8.691395    -4.253185     5.409785
H    -0.716770    -6.009121    -5.841630
O    -0.013986    -6.574554    -5.504797
H     0.821937    -6.113602    -5.721818
H     1.823566     8.277966     0.639908
O     1.522012     8.597432    -0.239288
H     2.338182     8.634753    -0.767640
H     3.515762     2.917388    -6.671567
O     4.342466     2.628641    -6.259549
H     4.095230     2.356401    -5.350784
H     3.736510     7.123983    -1.247169
O     3.941782     8.059388    -1.462426
H     4.313831     8.001323    -2.354473
H     4.416434    -0.022395    -7.912769
O     4.791173     0.126057    -7.042694
H     4.608775     1.058467    -6.801821
H     6.033370     1.933887    -0.476287
O     6.600230     2.125862    -1.237229
H     7.424525     1.646781    -1.040533
H     6.692618    -8.432580    -1.584678
O     7.330260    -8.223194    -2.320150
H     7.698132    -9.057876    -2.605272
H    -5.284133    -5.800570    -5.420153
O    -5.900695    -5.129293    -5.737420
H    -5.349604    -4.361463    -5.975274
H     0.663978     7.190604     7.576441
O    -0.238437     7.218701     7.933686
H    -0.792077     7.231415     7.115022
H    -8.885719    -2.844931    -4.128996
O    -9.405707    -2.037203    -3.959202
H    -9.123371    -1.372146    -4.591025
H    -2.401358    -5.992692    -2.148475
O    -3.278596    -5.706454    -2.420040
H    -3.463900    -6.083518    -3.305255
H    -2.969788    -5.911352    -5.416135
O    -3.570227    -6.520090    -4.943363
H    -3.088767    -7.340125    -4.774382
H    -1.373269     3.711476    -7.007241
O    -0.834283     2.957149    -6.730832
H    -1.067383     2.170167    -7.280391
H    -0.182393     0.401273    -8.229259
O    -1.078481     0.638208    -7.947352
H    -1.256291     0.114547    -7.150042
H    -10.244126     4.307905    -3.071985
O    -10.385344     3.447842    -2.646103
H    -9.637361     3.363733    -2.023332
H     4.577182     4.085869     1.711505
O     4.367944     3.165455     1.990954
H     5.084799     2.589062     1.713128
H     6.497509     1.391651    -4.218471
O     6.192676     0.769095    -3.523893
H     6.221764     1.266230    -2.681027
H     9.637834    -2.225050    -0.913175
O     9.916550    -2.012166    -1.812673
H     9.117081    -1.674899    -2.258773
H     9.979801    -3.324236    -3.079270
O     9.714464    -3.977765    -3.753415
H     9.322408    -3.471857    -4.475758
H    -7.690203    -8.579190    -1.678818
O    -6.952119    -7.984784    -1.805405
H    -7.330360    -7.071866    -1.798849
H     4.170245     6.074746    -3.835354
O     4.830593     6.776591    -3.749749
H     5.666813     6.323391    -3.609834
H     0.114637    -8.180597    -5.209725
O     0.138639    -9.163163    -5.075561
H     0.290972    -9.528914    -5.946972
H    -2.321775    -8.679166    -2.714761
O    -2.085546    -8.416938    -3.624141
H    -1.438269    -9.036202    -3.980299
H     2.197132    -10.822455    -3.479105
O     2.150678    -9.867875    -3.456911
H     1.366474    -9.598483    -3.985661
H     6.847826     3.323733    -4.576841
O     6.907730     2.643967    -5.275969
H     6.115616     2.775671    -5.818980
H    -3.580247    -3.706075     7.708649
O    -3.693310    -2.919424     7.176619
H    -3.439847    -3.160455     6.259419
H    -0.618776    -3.375630    -6.730659
O     0.011249    -2.643907    -6.737772
H    -0.471965    -1.867975    -6.399565
H     0.622264     0.480669     8.741769
O     0.631447    -0.235254     8.102492
H    -0.290449    -0.524819     8.013533
H    -5.664092     7.392739    -4.251679
O    -6.204080     6.830687    -4.851318
H    -6.496564     6.075135    -4.287210
H    -4.268096     9.097951    -3.304633
O    -4.806264     8.304233    -3.189959
H    -4.395158     7.825830    -2.451358
H    -9.535034     6.596999    -4.370710
O    -10.021598     5.739180    -4.449963
H    -10.869827     5.976735    -4.837277
H     2.753782     6.530501     6.121808
O     1.793369     6.626974     6.216735
H     1.450459     5.713162     6.116005
H     4.802965     8.550027     0.066015
O     5.117640     8.552830     0.987847
H     5.525069     7.689186     1.121574
H     4.157492    -7.433108    -4.328772
O     3.400661    -7.719141    -4.872147
H     3.119874    -8.559508    -4.495050
H     0.366457     8.670113     4.205946
O     1.044389     8.024883     3.980287
H     1.269668     7.534043     4.796582
H     5.243531     4.186966    -3.165573
O     6.204828     4.157854    -3.110275
H     6.412323     3.577798    -2.360940
H    -2.593721    -1.528304     7.558807
O    -2.084343    -0.734181     7.777930
H    -2.711182    -0.107689     8.149946
H    -8.470165     8.452576    -3.578906
O    -8.617688     8.061068    -4.445785
H    -7.728836     7.724778    -4.705099
H     3.532194    -8.975878     1.106236
O     2.854784    -8.343700     1.352003
H     3.328482    -7.537677     1.631441
H     3.579310     8.178039     1.808962
O     2.788181     7.615100     1.920282
H     2.340603     7.851952     2.745364
N    -8.934763     3.958328    -6.352034
H    -7.991290     3.802275    -6.239512
H    -9.155120     4.654132    -5.701159
