603

H     0.200148     3.052378    -0.665104
O     0.723929     2.387214    -1.161486
H     1.662309     2.514122    -0.885468
H    -0.074918    -1.296645     3.152648
O     0.316605    -0.594471     2.610390
H    -0.162247     0.217765     2.845741
H    -2.399201     2.429320    -0.525518
O    -2.186668     1.956493     0.296623
H    -2.204342     1.009150     0.069343
H    -4.662921     0.556500     2.186331
O    -4.978794    -0.377303     2.197391
H    -4.473995    -0.852780     1.529448
H     0.064949    -0.292840     0.956425
O    -0.131188    -0.053476     0.029862
H     0.206319     0.844176    -0.086851
H    -0.151856    -3.568674     3.774088
O    -0.431413    -2.739650     4.196235
H     0.213946    -2.570596     4.899107
H    -4.887586     2.542803     1.339175
O    -4.248164     2.131443     1.953041
H    -3.405201     2.116182     1.440937
H    -3.249615     3.920239    -2.197026
O    -2.509529     3.325153    -1.967637
H    -2.152903     3.036697    -2.827734
H    -0.121152    -3.787811     0.498785
O     0.217987    -2.970920     0.918514
H    -0.569932    -2.486130     1.231588
H    -2.376509    -1.528366     2.469780
O    -2.186452    -1.991936     1.627703
H    -2.445345    -1.403275     0.899637
H     2.075280    -1.420544    -1.118755
O     2.306980    -1.675429    -0.201932
H     1.518029    -2.104802     0.180560
H    -1.392991     1.837354     1.921050
O    -1.483417     1.437188     2.796045
H    -1.470456     2.147805     3.462954
H     0.212219    -2.680549    -1.571879
O    -0.543447    -2.068867    -1.625542
H    -0.365026    -1.344512    -0.989176
H    -3.433401    -2.908936    -0.395254
O    -2.715108    -3.399004    -0.816701
H    -2.005712    -2.766928    -1.033088
H     2.771537     0.141489     2.940307
O     2.870692    -0.043678     3.901415
H     2.960836     0.848054     4.308820
H    -3.559850     6.377594    -0.486614
O    -3.371491     7.038519    -1.208576
H    -3.180493     7.898504    -0.764705
H     3.901674     0.601470     1.194171
O     2.950987     0.419640     1.308728
H     2.714477    -0.331863     0.727814
H    -5.780084     0.861247    -1.600171
O    -4.870013     1.189251    -1.472478
H    -4.982536     2.016410    -0.958864
H    -1.216825     5.410214     2.229069
O    -1.838354     4.661109     2.108601
H    -1.918421     4.240871     2.970153
H     3.491963     2.782320     0.439004
O     3.244915     2.743567    -0.500712
H     3.577293     1.901743    -0.853544
H     1.496707    -4.671506    -2.257521
O     1.560337    -3.895578    -1.682475
H     2.354823    -3.433023    -2.031910
H    -0.920028    -0.060802    -2.544498
O    -0.286820     0.593847    -2.866247
H    -0.027124     1.173429    -2.127046
H     1.703666    -4.665573    -0.186037
O     1.811016    -5.304538     0.554849
H     1.348286    -6.115290     0.256590
H    -1.222275    -3.240783    -2.884200
O    -1.047281    -3.922127    -3.546634
H    -0.920786    -4.770272    -3.079839
H    -2.784350     3.313425     4.716417
O    -1.802979     3.311691     4.682995
H    -1.510571     2.907761     5.518346
H     0.956756     5.042997     4.094628
O     0.010607     5.275001     4.145192
H    -0.461612     4.471415     4.401632
H    -1.725692    -4.632645    -0.379490
O    -0.960218    -5.173620    -0.095762
H    -1.307500    -5.862236     0.480588
H    -3.925161     5.854082    -2.578328
O    -4.268794     5.018089    -2.911089
H    -4.120740     4.988229    -3.880365
H    -2.427748    -3.677839     1.930378
O    -2.445547    -4.583106     2.303616
H    -1.505690    -4.820808     2.444092
H    -4.691150    -2.957140    -2.903740
O    -3.838305    -3.188186    -3.310163
H    -3.507130    -3.982888    -2.846892
H     0.336855     1.383593     4.623186
O     0.842591     2.144981     4.291807
H     0.889837     2.802140     5.000476
H    -4.649537    -5.151404    -1.581416
O    -5.351814    -4.800039    -1.006991
H    -5.138753    -5.156557    -0.123663
H     2.333817    -6.450798    -4.051277
O     1.996342    -6.124482    -3.196992
H     2.430832    -6.699876    -2.535130
H     0.471827    -3.349580    -4.009413
O     1.274222    -2.980532    -4.431411
H     0.954509    -2.607364    -5.279108
H     1.964542    -1.741205     2.983061
O     2.120772    -2.671281     2.763034
H     1.435200    -2.883709     2.095338
H    -3.011525    -1.784406    -3.210875
O    -2.589891    -0.897760    -3.143760
H    -3.246123    -0.251825    -3.461443
H    -3.193499     4.989892     1.095328
O    -3.971784     5.367044     0.638672
H    -4.390930     5.920446     1.346009
H     0.873296     2.266129     2.602030
O     0.975739     2.264978     1.630866
H     1.702688     1.641962     1.465717
H     0.198795     5.672032    -0.712951
O     0.692735     6.353238    -1.231811
H     0.875859     7.113554    -0.634020
H     0.334124     7.049036     2.612971
O    -0.023434     6.672066     1.792105
H     0.639156     5.999163     1.533649
H    -2.481144     0.223180     3.345506
O    -2.702061    -0.592567     3.847984
H    -1.941834    -0.632821     4.470016
H    -0.896362     0.556029     6.031158
O    -0.621370     0.039057     5.255363
H     0.092112    -0.564967     5.540886
H     0.713555    -4.980769     1.972025
O     0.171200    -5.092798     2.776069
H     0.316479    -6.014009     3.045841
H    -2.112002    -8.072769     0.430691
O    -1.790112    -7.586637     1.217229
H    -2.576734    -7.277298     1.674021
H    -0.424279     6.960256    -2.282033
O    -1.185310     7.378483    -2.763974
H    -1.946386     7.172775    -2.162160
H    -1.112277     4.329839     0.586891
O    -0.740767     4.395470    -0.309769
H    -1.448368     4.149232    -0.939709
H    -4.412465     2.753666     3.517378
O    -4.410616     2.921269     4.482417
H    -4.493994     2.037165     4.889150
H     2.025568    -3.574043     4.240244
O     1.961970    -4.048749     5.092082
H     2.468177    -3.513340     5.724486
H     4.690393    -3.175499     0.836850
O     4.530307    -3.097030    -0.129525
H     3.670916    -2.620459    -0.211836
H    -2.721285    -0.728116    -1.349923
O    -3.048793    -0.460140    -0.474941
H    -3.850072     0.065061    -0.680580
H    -1.614457    -0.731160    -4.629301
O    -1.107351    -0.511884    -5.432303
H    -0.397847     0.083718    -5.144674
H     1.797646    -1.686021    -3.376305
O     1.889263    -0.940385    -2.751601
H     1.111110    -0.364105    -2.881029
H     3.664837    -3.108264     2.548176
O     4.624070    -3.336308     2.474572
H     4.679449    -4.296755     2.598932
H     3.430137    -6.109150     3.112855
O     3.785946    -5.905547     2.213286
H     3.048293    -5.559120     1.671123
H    -3.343061     1.639320    -4.168916
O    -4.186701     1.166318    -3.980053
H    -4.405975     1.309336    -3.023177
H    -5.085025     4.163797     0.078879
O    -5.522107     3.297055    -0.025173
H    -6.452972     3.415727    -0.306467
H     6.735590    -1.155745    -1.358966
O     5.962585    -1.007831    -0.807734
H     5.544449    -1.876486    -0.612127
H     4.597072    -3.140890    -2.472982
O     3.729278    -2.968904    -2.888868
H     3.733202    -3.585945    -3.646460
H     4.434835    -2.287815     5.621875
O     4.092074    -2.755701     6.413670
H     4.427729    -3.660261     6.329672
H    -0.760224     6.343523     5.095217
O    -1.356991     6.917827     5.634640
H    -1.373317     7.795240     5.193809
H     4.698963    -0.110529    -1.460870
O     3.931312     0.432133    -1.722614
H     3.239394    -0.168335    -2.054145
H    -0.642977     4.560786    -4.043069
O    -1.427136     5.096563    -4.279046
H    -1.320128     5.934985    -3.792918
H     0.657517     3.229615    -2.643947
O     0.664507     3.611554    -3.550765
H     0.711158     2.850606    -4.139768
H    -5.379958    -5.184003     1.783778
O    -4.682744    -5.777329     1.427151
H    -3.842635    -5.361459     1.699107
H     7.883689    -1.656323    -4.031722
O     7.625413    -1.345540    -3.131321
H     7.137962    -0.501745    -3.285714
H     3.706215    -5.037457    -5.298068
O     4.468333    -4.664768    -4.815892
H     4.853183    -5.377029    -4.271955
H    -3.785918     0.021035     4.938352
O    -4.386862     0.483109     5.572115
H    -5.046788    -0.176069     5.862147
H     3.468714    -5.920528    -0.529444
O     4.341206    -5.671982    -0.846871
H     4.416968    -4.710037    -0.700588
H     5.001906    -0.303619    -4.155292
O     4.466714    -1.013822    -4.547355
H     4.141168    -1.599781    -3.831295
H    -1.172984     1.601144    -3.928057
O    -1.821671     2.225435    -4.311155
H    -1.464657     2.556191    -5.158082
H     4.889786    -6.294722    -2.326162
O     5.223198    -6.616914    -3.192610
H     6.041264    -7.098155    -3.006918
H     8.744342    -5.060744    -2.925324
O     8.053068    -5.480332    -2.368373
H     8.088463    -6.437377    -2.472845
H     2.334829     4.736338     0.468395
O     1.754943     4.718657     1.238873
H     1.398318     3.797801     1.316469
H    -4.414791    -2.630153     4.228233
O    -5.308958    -2.290791     4.026484
H    -5.172539    -1.508017     3.453085
H    -5.844029    -3.185101     1.312574
O    -6.306406    -3.744298     1.979377
H    -6.118741    -3.310737     2.831078
H     1.681282     3.470603     6.876515
O     1.058375     3.987324     6.343757
H     0.275022     4.138349     6.915562
H     5.001096    -2.157578     3.616545
O     5.020931    -1.440904     4.282424
H     4.208689    -0.884911     4.127096
H     2.392966    -5.569745     4.829191
O     2.773786    -6.452575     4.566921
H     2.029254    -7.034234     4.391127
H     2.261499    -4.478424    -6.797204
O     2.092712    -4.968957    -5.982805
H     1.827360    -4.279749    -5.325614
H     6.442376    -4.079856    -0.508182
O     7.195894    -4.483410    -0.045875
H     7.703543    -4.904087    -0.767625
H    -1.731003     4.487283     7.716858
O    -0.832037     4.585446     8.102232
H    -0.652470     5.544779     8.129415
H    -5.121976     5.722390    -5.573982
O    -4.509971     4.961097    -5.598075
H    -3.756448     5.178556    -6.167416
H     3.284710    -2.484803    -8.438331
O     3.197044    -3.019123    -7.638124
H     4.073676    -2.995872    -7.209256
H    -0.484610     8.974710    -1.955074
O    -0.312760     9.803945    -1.470733
H     0.426332     9.559481    -0.879433
H     2.065156    -0.906476     5.214780
O     1.492578    -1.434374     5.800525
H     1.585670    -1.091284     6.698684
H     5.207837    -1.987870    -5.692675
O     5.554774    -2.752476    -6.216547
H     5.281419    -3.544021    -5.701118
H     5.697263    -5.205439     4.678349
O     5.174886    -5.122803     5.505170
H     4.453927    -5.755224     5.418106
H    -3.977333     1.144211     7.013693
O    -3.785622     1.618062     7.858684
H    -4.662076     2.002561     8.120271
H    -1.802877     9.698942    -0.622777
O    -2.711820     9.498672    -0.293315
H    -3.294811     10.100524    -0.782217
H    -5.958040     4.711720    -2.923338
O    -6.864265     4.582540    -3.269759
H    -6.768827     3.881925    -3.947329
H     0.099397    -7.043315    -1.156732
O     0.563901    -7.480726    -0.410086
H    -0.115229    -7.677859     0.238145
H    -7.641442     3.808874    -1.958164
O    -7.901603     3.218692    -1.219907
H    -7.757928     2.311702    -1.563001
H     3.971185    -0.889953     6.990233
O     3.979206     0.074234     6.983271
H     4.791651     0.365533     6.552923
H     2.245766     5.821818    -1.169092
O     3.179004     5.530194    -1.049466
H     3.362507     4.989718    -1.841522
H     6.553965    -5.909236     0.662665
O     6.185714    -6.647147     1.194375
H     5.281019    -6.371138     1.421928
H    -3.874334     4.725849     7.796301
O    -3.306852     4.264888     7.136686
H    -3.500195     3.321158     7.244494
H     5.767171    -7.924343     0.123406
O     5.479939    -8.610107    -0.515846
H     4.650560    -8.284230    -0.909373
H    -0.561884     2.040664     7.703067
O    -1.194731     1.977580     6.967532
H    -2.063302     1.834481     7.363439
H    -6.383998    -0.109748     1.065943
O    -6.703033    -0.192508     0.152610
H    -7.621933    -0.462874     0.169205
H    -5.370234    -3.047828    -0.592016
O    -5.118215    -2.347032     0.035405
H    -5.689222    -1.574207    -0.149809
H     4.312715     5.597541     0.339265
O     4.652075     5.693350     1.242324
H     3.959962     6.198487     1.704418
H    -9.042964    -1.727880    -2.254066
O    -8.495049    -1.528170    -1.467615
H    -8.622137    -2.266301    -0.831650
H    -5.525282     3.499952    -5.516248
O    -6.041478     2.785678    -5.106362
H    -5.375098     2.200744    -4.691925
H     3.181112    -0.853407    -5.652061
O     2.325355    -0.972374    -6.118470
H     2.411422    -1.820245    -6.593915
H     8.115678    -1.310809    -6.026627
O     8.124347    -2.175797    -5.572123
H     7.268554    -2.575878    -5.823883
H     7.620188     1.030250    -6.301748
O     7.431850     0.182758    -6.716864
H     6.450575     0.132154    -6.753482
H    -7.858652    -3.682521     0.924733
O    -8.537052    -3.574596     0.240520
H    -8.438166    -4.332471    -0.362974
H    -2.426673     8.755186     1.292807
O    -2.267839     8.171135     2.047649
H    -1.496909     7.618806     1.826828
H    -4.446259     6.445122     3.516646
O    -4.618736     6.869695     2.660069
H    -3.860414     7.461385     2.518587
H     3.398687     3.476564    -3.562836
O     3.242962     4.445471    -3.466287
H     2.278097     4.507440    -3.576093
H    -6.114981    -1.582824    -3.442123
O    -6.197212    -2.164253    -2.659734
H    -6.981571    -1.859122    -2.150283
H     6.465189     1.059979     4.748458
O     6.070567     1.596810     5.452541
H     6.258238     2.516307     5.164061
H     1.360672     1.756723    -5.813294
O     1.166752     1.159463    -5.059973
H     1.530249     0.296983    -5.331878
H    -2.494703     2.954728     10.495618
O    -2.281657     2.048006     10.220031
H    -2.879123     1.849745     9.487071
H     7.626014    -0.482838     3.088535
O     6.875589     0.092056     3.258318
H     6.183696    -0.509587     3.636478
H    -5.654032    -8.038108    -0.716659
O    -4.919056    -8.107707    -0.070444
H    -4.923675    -7.291751     0.453607
H    -5.177663    -0.092074    -4.711647
O    -5.793907    -0.803789    -4.953287
H    -6.632620    -0.362475    -5.150054
H     1.890318    -0.159374    -7.510376
O     1.688531     0.314909    -8.352906
H     2.265048    -0.088540    -9.007267
H     4.873360    -1.348137    -9.302143
O     3.948096    -1.118907    -9.583718
H     3.927880    -1.234737    -10.533015
H     7.563929    -2.558310     4.199615
O     7.710666    -2.591583     3.240001
H     7.218284    -3.382374     2.966170
H     6.723340    -5.878977     2.675944
O     6.784447    -5.205351     3.378635
H     7.660257    -5.290945     3.796555
H    -1.832358     8.961560     3.514100
O    -1.582781     9.257379     4.414506
H    -2.430257     9.392328     4.871699
H    -7.391751     1.593402    -5.243676
O    -7.965858     0.848493    -4.999674
H    -8.867984     1.247490    -4.922666
H     6.927053    -1.038965    -8.401294
O     6.345414    -1.759631    -8.666662
H     6.118018    -2.211881    -7.835877
H    -1.731428     6.141339    -7.214577
O    -2.116110     5.382784    -6.775134
H    -1.745909     5.355564    -5.844029
H    -0.004852     3.308122     9.036276
O     0.192978     2.387925     9.289234
H    -0.605317     2.121902     9.794833
H     6.757485    -2.750152    -2.706048
O     6.227388    -3.495532    -2.367016
H     6.696416    -4.305486    -2.615401
H    -4.075584    -3.044771    -4.946632
O    -4.229309    -2.929823    -5.911239
H    -4.777769    -2.137465    -5.965622
H     1.975188     2.183571     8.475986
O     2.639097     2.297738     7.786224
H     3.061791     1.427955     7.669251
H    -6.904796    -5.184403    -1.403832
O    -7.820013    -5.454338    -1.650188
H    -7.953938    -5.049725    -2.532152
H    -3.833128     5.259032     5.714330
O    -3.800241     6.028704     5.125238
H    -2.866847     6.323980     5.220920
H    -7.885897     0.105567    -1.962261
O    -7.395613     0.829701    -2.374167
H    -7.624771     0.821645    -3.327206
H     5.836129     0.151367     0.418224
O     5.613838     0.871270     1.040886
H     6.124033     0.674093     1.853446
H    -6.219484     3.308926     7.408602
O    -6.091445     2.788638     8.235973
H    -6.691346     2.027260     8.145735
H     2.282399    -8.051358    -0.857296
O     2.959544    -8.036587    -1.553363
H     2.735331    -8.749393    -2.168213
H    -2.742067    -3.929343    -6.202055
O    -1.987687    -4.495235    -5.971773
H    -1.712030    -4.205956    -5.073684
H    -5.648045     3.764958     5.322461
O    -6.296922     4.159164     5.941288
H    -6.135832     5.103641     5.928415
H    -1.014175    -7.088554    -3.175198
O    -0.542248    -6.419555    -2.645511
H     0.365186    -6.348646    -3.026212
H     4.440745     2.025443     5.140592
O     3.499160     2.265041     5.020631
H     3.114368     2.278478     5.902381
H     4.103453     4.663305     6.319512
O     4.184490     5.394644     5.702863
H     3.616754     5.155811     4.931579
H     2.760063     3.628274     3.938302
O     2.582431     4.568669     3.774015
H     2.463092     4.669474     2.808050
H     9.392471     0.238324    -1.064155
O     8.585948     0.399542    -0.570860
H     8.410799    -0.420376    -0.079269
H    -2.108160     5.313777     10.668526
O    -2.829494     4.683926     10.898357
H    -3.048605     4.859299     11.813708
H     7.973796    -2.986473     0.326407
O     8.394156    -2.140026     0.583614
H     8.328469    -2.137675     1.545953
H     5.366052     3.678285     3.541366
O     6.022520     3.943231     4.207440
H     5.608900     4.658866     4.711903
H    -4.215540     5.016640     9.801477
O    -4.848358     5.168902     9.079518
H    -5.459987     4.420104     9.075233
H    -7.008975    -3.455837    -3.489137
O    -7.628829    -4.067298    -3.938950
H    -7.107468    -4.507128    -4.642280
H     0.019719     6.123788     10.790766
O    -0.845175     6.454861     10.544174
H    -0.729864     6.887615     9.678916
H     2.587658     1.527251    -4.096202
O     3.465350     1.880822    -3.855720
H     3.786257     1.362920    -3.087222
H    -6.974750    -0.220209     7.223805
O    -7.483735     0.557359     7.505950
H    -8.107047     0.742061     6.802299
H    -2.737013    -9.854217    -0.848338
O    -2.674482    -8.912164    -1.006021
H    -3.580660    -8.546873    -0.764431
H    -10.071559     3.099521    -4.886923
O    -10.187792     2.181291    -4.608191
H    -10.403548     2.263568    -3.658197
H    -2.067610    -3.017052     4.612113
O    -2.942143    -3.458018     4.680794
H    -2.935668    -4.074059     3.923092
H    -0.174126    -7.969567     2.472020
O     0.652112    -7.759444     2.920329
H     1.370607    -8.053569     2.332890
H     6.705257    -2.367887     6.393225
O     7.155135    -3.076240     5.927936
H     6.525649    -3.811412     5.887924
H    -5.273048    -2.003067     6.944057
O    -5.949617    -1.504328     6.461197
H    -5.933185    -1.879267     5.551182
H     0.833874     3.070318    -7.102245
O     1.751490     2.739869    -7.158269
H     1.738569     1.993927    -7.786107
H    -3.963636     8.758738     6.698132
O    -3.957730     8.759097     5.740820
H    -4.085258     7.832890     5.469944
H    -3.261048     10.391895    -3.143109
O    -4.031677     10.610137    -2.561100
H    -4.273930     11.514183    -2.777867
H     9.411459    -4.046346     4.041256
O     9.132022    -4.726078     4.662211
H     8.702198    -4.255693     5.387448
H    -0.731358    -5.964326    -5.849628
O    -0.027626    -6.531217    -5.517312
H     0.807646    -6.068817    -5.733873
H     1.890342     8.244030     0.733116
O     1.584225     8.574456    -0.141321
H     2.391980     8.622704    -0.681751
H     3.495532     2.967237    -6.649890
O     4.323370     2.677513    -6.240746
H     4.078196     2.400677    -5.332826
H     3.743464     7.140531    -1.212075
O     3.954744     8.076574    -1.419300
H     4.312372     8.026468    -2.317769
H     4.394456     0.033484    -7.906082
O     4.771304     0.178479    -7.036334
H     4.589046     1.109749    -6.791067
H     6.028465     1.956841    -0.464880
O     6.593348     2.152744    -1.226324
H     7.418259     1.672987    -1.033872
H     6.688117    -8.404685    -1.620863
O     7.323804    -8.191931    -2.357072
H     7.690422    -9.025375    -2.647388
H    -5.297937    -5.759720    -5.416239
O    -5.915524    -5.087398    -5.729483
H    -5.364936    -4.318289    -5.964496
H     0.674935     7.176797     7.623150
O    -0.226682     7.202740     7.982424
H    -0.782051     7.219361     7.164892
H    -8.896468    -2.810965    -4.103856
O    -9.417465    -2.003278    -3.934258
H    -9.132203    -1.336611    -4.562860
H    -2.406986    -5.965449    -2.152213
O    -3.285143    -5.678763    -2.420378
H    -3.472185    -6.051698    -3.306886
H    -2.983182    -5.869590    -5.418264
O    -3.582617    -6.480745    -4.947326
H    -3.100289    -7.301175    -4.782608
H    -1.393901     3.762880    -6.969297
O    -0.853629     3.007603    -6.698773
H    -1.088601     2.222834    -7.250707
H    -0.204813     0.457390    -8.209591
O    -1.100414     0.692623    -7.924701
H    -1.276043     0.165602    -7.129101
H    -10.426874     4.072359    -2.719491
O    -10.493409     3.291332    -2.154468
H    -9.664632     3.265210    -1.644549
H     4.578609     4.097050     1.735525
O     4.368224     3.175916     2.011671
H     5.084200     2.599855     1.730918
H     6.483824     1.431764    -4.210487
O     6.180740     0.806058    -3.518011
H     6.211844     1.299234    -2.672895
H     9.633253    -2.198975    -0.928848
O     9.909775    -1.981902    -1.828024
H     9.109148    -1.642864    -2.270684
H     9.970472    -3.288270    -3.100594
O     9.703707    -3.938847    -3.777029
H     9.309839    -3.429809    -4.496178
H    -7.693592    -8.556466    -1.680809
O    -6.956183    -7.961295    -1.807804
H    -7.334536    -7.048557    -1.795866
H     4.155144     6.109768    -3.804133
O     4.814156     6.812759    -3.717661
H     5.651627     6.361073    -3.580363
H     0.102077    -8.138440    -5.229604
O     0.126617    -9.121623    -5.100133
H     0.277209    -9.483203    -5.973586
H    -2.328027    -8.649119    -2.730919
O    -2.094227    -8.382861    -3.639776
H    -1.447443    -9.000219    -4.000129
H     2.189695    -10.787196    -3.516153
O     2.142954    -9.832743    -3.489588
H     1.357350    -9.561256    -4.015153
H     6.832584     3.366089    -4.561356
O     6.890820     2.689241    -5.263341
H     6.097397     2.822937    -5.803976
H    -3.563948    -3.722774     7.717666
O    -3.678466    -2.933780     7.189441
H    -3.427112    -3.170549     6.270577
H    -0.636321    -3.326848    -6.727001
O    -0.006739    -2.594782    -6.732778
H    -0.489211    -1.820591    -6.389401
H     0.638898     0.461059     8.759297
O     0.646985    -0.252217     8.117037
H    -0.275099    -0.541430     8.028663
H    -5.922162     7.371561    -4.169533
O    -6.346629     6.756970    -4.800163
H    -6.650761     6.010584    -4.236843
H    -5.190088     9.070474    -2.755508
O    -5.575142     8.186163    -2.678358
H    -4.972465     7.711028    -2.083137
H    -9.716529     5.822616    -4.626479
O    -10.248781     5.015901    -4.467745
H    -11.129981     5.218012    -4.784082
H     2.761885     6.523406     6.160941
O     1.801668     6.619311     6.257862
H     1.458661     5.705814     6.154540
H     4.803781     8.568308     0.114065
O     5.114985     8.565951     1.036837
H     5.526018     7.703146     1.164733
H     4.146757    -7.393283    -4.354755
O     3.388910    -7.677164    -4.897870
H     3.109171    -8.519272    -4.523898
H     0.368113     8.670931     4.257547
O     1.047273     8.027450     4.030168
H     1.272261     7.532590     4.844167
H     5.231134     4.220662    -3.142372
O     6.192520     4.193761    -3.088496
H     6.402547     3.609529    -2.343076
H    -2.578817    -1.543601     7.575013
O    -2.069083    -0.750435     7.796676
H    -2.695309    -0.125516     8.172416
H    -9.032726     7.958434    -4.121399
O    -8.971360     7.378665    -4.882155
H    -8.014176     7.211556    -5.016691
H     3.535228    -8.960496     1.074571
O     2.858081    -8.329835     1.324937
H     3.332036    -7.524900     1.607074
H     3.596207     8.179966     1.888247
O     2.814022     7.605485     2.004892
H     2.347695     7.852078     2.817189
N    -1.821728     9.946107    -4.030498
H    -1.122729     10.430011    -3.573511
H    -1.618827     9.021063    -3.804505
