42
Coordinates from ORCA-job grain_mol_opt.QMRegion
  H   -3.27408522962570      3.97886833301301     -2.17374799001574
  O   -2.58191927873147      3.33053061218462     -1.93704079002846
  H   -2.14538560156004      3.09998549072439     -2.77531063888032
  H   -4.05816449641963      5.90928690255224     -2.51199038285174
  O   -4.31173670402771      5.05652743573136     -2.88540129123195
  H   -4.15481414674185      5.09430710691679     -3.85312046867338
  H   -3.01985674257343     -1.89206262260486     -3.18266161779008
  O   -2.58577655001921     -1.00103090897577     -3.15110356202704
  H   -3.27468540934452     -0.36431056171843     -3.42820997353087
  H   -1.59724524600606     -0.83623382193741     -4.65234632445139
  O   -1.05005587913636     -0.57643920697492     -5.42586636903751
  H   -0.31861270291383     -0.06084975076051     -5.05538946035009
  H   -3.36428115184724      1.54790099784377     -4.13660409458508
  O   -4.21653775895116      1.09088664751487     -3.92997127548523
  H   -4.39699108438592      1.24508551920603     -2.96298660085050
  H   -0.58727389368428      4.62329201567821     -4.06314173498124
  O   -1.36868927244013      5.16437006101731     -4.30782024653467
  H   -1.24949790438944      6.02278435211770     -3.84791219828143
  H   -1.15884756366268      1.56272927506952     -3.86739636616085
  O   -1.81432139158137      2.19714886373852     -4.22555935091007
  H   -1.45436670274924      2.50822628505041     -5.08265535644300
  H   -5.20270997119298      5.71100755246225     -5.61542755801312
  O   -4.54788187673884      4.98186968592865     -5.67381223242959
  H   -3.78601549927529      5.33234708712557     -6.16806503519060
  H   -5.72726134681922      3.27842244487718     -5.71028870127259
  O   -6.15235204152001      2.71110446663854     -5.05688409650473
  H   -5.42035294964792      2.19486819194662     -4.65923493156108
  H   -5.25319639810359     -0.15627817818681     -4.75456466737993
  O   -5.86423710772219     -0.87411749938882     -4.99748001729896
  H   -6.70982075077818     -0.42686362587021     -5.16980787098178
  H   -1.71148067529909      6.22543905390151     -7.14069186539583
  O   -2.04485480227098      5.40961693156433     -6.75883021321243
  H   -1.69874969277371      5.39310787597560     -5.80340399307911
  H   -1.16322799319234      3.81157234187694     -6.95557396514368
  O   -0.71384403141885      3.01565602713891     -6.62076280884133
  H   -0.92668026962872      2.23554325432031     -7.19483782291294
  H   -0.17333581902082      0.45101295508862     -8.20948782682878
  O   -1.05618066731665      0.69712668921250     -7.87955035174338
  H   -1.16882692084066      0.17165837180084     -7.05976552079667
  O   -3.83811922074591      1.91444199710170     -7.07457856252412
  H   -3.66318266833002      2.85169755972086     -7.20344208750530
  H   -3.21890952298940      1.47319500707952     -7.66737680898056
