39
Coordinates from ORCA-job grain_mol_opt.QMRegion
  H   -3.40131173498645      6.44235969031583     -0.49360838039813
  O   -3.22786306131016      7.10204491662955     -1.22612054571789
  H   -3.04555977568704      7.95304931533659     -0.77511171444667
  H   -3.72541913227942      5.84119454351287     -2.77279034498795
  O   -4.16308479618605      5.03269116831691     -3.06259892063093
  H   -3.93408451417217      4.92535570126203     -4.01452205596587
  H   -3.11913855036807      5.00437093337529      1.12924831674524
  O   -3.89578071831087      5.37693256601497      0.64847036010300
  H   -4.31430826995270      5.93323536131926      1.35458192492055
  H   -5.05334923876175      4.14405245424518      0.02682142101125
  O   -5.51627810827513      3.29398125598721     -0.06032362274833
  H   -6.43917355393968      3.38487069707640     -0.37951319850289
  H   -4.95422477723560      5.62452476503956     -5.78553595005265
  O   -4.38420596469008      4.82579705196507     -5.77439715963389
  H   -3.62757758375720      4.98927761245024     -6.36272675392764
  H   -5.90815832779354      4.75757073129909     -3.09323582230521
  O   -6.82279100754136      4.62017803976944     -3.42531771428202
  H   -6.69362853041672      3.88065942110292     -4.06934939133628
  H   -7.60310866204730      3.74063971244645     -2.10348633868992
  O   -7.87465753395247      3.17381333961129     -1.34664980951296
  H   -7.70089797646150      2.26406643962873     -1.69577089683139
  H   -10.61080568146288      3.95911021674486     -2.70732338060063
  O   -10.60669471542794      3.13917313055264     -2.18566715618173
  H   -9.72613683718598      3.13931797485507     -1.76938602297700
  H   -5.69616970723924      7.35055471344910     -4.55683571129452
  O   -6.19177719012286      6.74542913960145     -5.13491724570227
  H   -6.53219337919616      6.05970599390833     -4.51449032977821
  H   -4.27782625036939      9.18526422657297     -3.17543268763620
  O   -4.81906395763062      8.38320591226637     -3.08249510028401
  H   -4.34225836658433      7.86828265353243     -2.39775148464796
  H   -9.77160877245364      5.80214642940747     -4.45638182987295
  O   -10.32821544289755      4.98819594485151     -4.45972308334056
  H   -11.14247678270552      5.24958088094581     -4.89699251349125
  H   -8.57312809169286      7.51910020010825     -3.56026933131651
  O   -8.94668311960755      7.33994860443851     -4.44366818052007
  H   -8.15015562698496      7.30459999471430     -4.99603618945742
  O   -7.48201620238383      7.93155970944572     -2.04988588622640
  H   -6.58991517737198      8.22554464467908     -2.30700602577878
  H   -7.34098273308451      7.26548678029384     -1.37020088018004
