36

H    -1.735149    -4.595397    -0.408756
O    -0.962417    -5.157358    -0.182239
H    -1.299330    -5.778993     0.476728
H    -2.432899    -3.576623     1.952172
O    -2.494289    -4.494101     2.303773
H    -1.551300    -4.778740     2.391947
H    -4.633499    -5.155965    -1.562864
O    -5.345361    -4.797310    -0.999254
H    -5.152483    -5.165860    -0.120340
H     0.705892    -4.949653     1.960975
O     0.166517    -5.075087     2.769434
H     0.399306    -5.983952     3.041565
H    -2.057980    -8.199359     0.651934
O    -1.642691    -7.683170     1.372692
H    -2.305009    -7.631496     2.094777
H    -5.424560    -5.033315     1.869678
O    -4.783046    -5.743106     1.579408
H    -3.908121    -5.301694     1.678282
H    -5.830343    -3.080903     1.320260
O    -6.304647    -3.631548     1.997720
H    -6.117512    -3.171095     2.841223
H    -5.703549    -8.066374    -0.771160
O    -4.961918    -8.140517    -0.126760
H    -4.999239    -7.334151     0.410573
H    -2.730611    -9.891156    -0.846870
O    -2.629311    -8.941196    -0.952942
H    -3.546505    -8.579464    -0.774936
H    -2.061962    -2.941998     4.616538
O    -2.921497    -3.407946     4.711577
H    -2.914920    -4.007136     3.940252
H    -0.041317    -8.009478     2.508346
O     0.770160    -7.799014     2.998368
H     1.489930    -8.075426     2.397552
N    -3.581677    -7.519731     3.324057
H    -4.209549    -6.925602     2.861778
H    -3.356651    -7.053321     4.134955
