27
Coordinates from ORCA-job grain_mol_opt.QMRegion
  H   6.42498931257883     -4.10837162543059     -0.49209484812557
  O   7.20306172437122     -4.50351626506620     -0.05892096466474
  H   7.65027501562949     -4.94084224860570     -0.81627368284016
  H   7.64959317974373     -0.18987816124913      3.21220270433140
  O   6.79327941455673      0.22742461402361      3.31463560460116
  H   6.19445457662865     -0.49944957822604      3.63547963115776
  H   7.40801258160460     -2.56072980714615      4.19979969986819
  O   7.27886823068829     -2.55871462514722      3.23609495504612
  H   6.99396274353476     -3.48227861067766      3.06712237693258
  H   6.73186194693783     -5.93452390989671      2.71812544994938
  O   6.80511430791211     -5.23922513918704      3.40185524434792
  H   7.70185599127695     -5.28221818588499      3.80289719340018
  H   9.32781898891012      0.23813049656342     -1.05390782508400
  O   8.63889551450077      0.49199162689712     -0.43248034321715
  H   8.37968782094191     -0.34897366812843     -0.02376560528331
  H   8.03565177014030     -3.03093611039210      0.45282130864422
  O   8.45924639062453     -2.22461692266221      0.82473856612459
  H   8.03839703937600     -2.16578987963469      1.71196685525041
  H   9.66938990137203     -4.26297031840091      3.91918725219344
  O   9.19169627712516     -4.76848160451175      4.60857711571158
  H   8.87419454479507     -4.10586240272529      5.23548791993993
  H   9.67290232462351     -2.23007942328688     -1.08287650585381
  O   9.91170681165507     -1.87921964980743     -1.94870688565116
  H   9.04579512361394     -1.63753904824166     -2.35246941492364
  O   10.49943806626008     -3.49176002354593      2.40433678556494
  H   10.91681919004827     -4.15957990995741      1.85265468950618
  H   9.86855295995007     -3.03658707232207      1.81093657575869
