603

H     0.201760     3.020757    -0.686384
O     0.723113     2.351184    -1.179747
H     1.662243     2.478395    -0.906814
H    -0.076351    -1.309597     3.152057
O     0.315949    -0.611136     2.605542
H    -0.159784     0.203639     2.838457
H    -2.398376     2.405635    -0.537992
O    -2.186179     1.936033     0.286097
H    -2.206207     0.987766     0.063101
H    -4.661424     0.551691     2.187238
O    -4.980228    -0.381025     2.202659
H    -4.477825    -0.860963     1.536099
H     0.061306    -0.315943     0.951032
O    -0.135414    -0.080680     0.023544
H     0.203419     0.815962    -0.097780
H    -0.158211    -3.578747     3.783879
O    -0.434393    -2.746840     4.202581
H     0.212762    -2.576500     4.903495
H    -4.882565     2.534163     1.331813
O    -4.242764     2.124466     1.946156
H    -3.400943     2.104366     1.432164
H    -3.248513     3.891869    -2.214964
O    -2.511545     3.293829    -1.984483
H    -2.155402     3.003912    -2.844292
H    -0.135458    -3.812600     0.509683
O     0.207244    -2.994441     0.924184
H    -0.578520    -2.506167     1.237335
H    -2.379947    -1.538109     2.475106
O    -2.192913    -2.005817     1.634611
H    -2.452061    -1.419751     0.904574
H     2.063143    -1.458729    -1.123653
O     2.297352    -1.710598    -0.206731
H     1.508074    -2.135424     0.180440
H    -1.387737     1.822494     1.909309
O    -1.478258     1.426252     2.786073
H    -1.461701     2.139549     3.450050
H     0.195953    -2.715896    -1.566182
O    -0.557228    -2.101492    -1.622122
H    -0.375884    -1.375192    -0.988732
H    -3.447250    -2.928426    -0.381665
O    -2.731139    -3.422128    -0.802583
H    -2.020536    -2.792887    -1.022990
H     2.773478     0.120036     2.927194
O     2.874653    -0.061263     3.888718
H     2.968189     0.832030     4.292101
H    -3.521236     6.377648    -0.550564
O    -3.282455     7.038328    -1.252473
H    -3.138580     7.884148    -0.784061
H     3.901550     0.569147     1.176414
O     2.950798     0.389788     1.293547
H     2.710915    -0.363733     0.716852
H    -5.786285     0.842512    -1.598055
O    -4.874933     1.168306    -1.474069
H    -4.983536     1.997971    -0.963907
H    -1.201196     5.395001     2.200675
O    -1.827305     4.648522     2.086004
H    -1.905048     4.231814     2.949497
H     3.495760     2.748573     0.412275
O     3.246932     2.703788    -0.526726
H     3.576543     1.859217    -0.874830
H     1.475291    -4.713818    -2.246419
O     1.541452    -3.934519    -1.675994
H     2.335690    -3.475213    -2.028753
H    -0.930315    -0.096682    -2.548730
O    -0.294646     0.553541    -2.874615
H    -0.032842     1.137001    -2.139005
H     1.685069    -4.698611    -0.175140
O     1.792753    -5.334396     0.568110
H     1.327097    -6.145377     0.274676
H    -1.242806    -3.278222    -2.873650
O    -1.069172    -3.962333    -3.533562
H    -0.945187    -4.809273    -3.063663
H    -2.769718     3.314301     4.701434
O    -1.788507     3.309433     4.665573
H    -1.495150     2.908770     5.502205
H     0.974995     5.031323     4.063399
O     0.029465     5.265380     4.116112
H    -0.443702     4.463793     4.376817
H    -1.744343    -4.656815    -0.361598
O    -0.979489    -5.198121    -0.076929
H    -1.327208    -5.883701     0.502829
H    -3.914983     5.826778    -2.603760
O    -4.267347     4.992545    -2.931513
H    -4.114699     4.956041    -3.899986
H    -2.438478    -3.689679     1.945402
O    -2.458046    -4.593223     2.322640
H    -1.518590    -4.833003     2.462250
H    -4.710467    -2.984149    -2.887138
O    -3.859072    -3.219339    -3.294235
H    -3.529406    -4.013145    -2.828259
H     0.346159     1.376018     4.609819
O     0.853388     2.134315     4.273691
H     0.904362     2.794622     4.979196
H    -4.672217    -5.172610    -1.555141
O    -5.372162    -4.816382    -0.980869
H    -5.158422    -5.169724    -0.096399
H     2.302973    -6.504571    -4.032522
O     1.968155    -6.170842    -3.179649
H     2.401042    -6.745323    -2.515787
H     0.450192    -3.396711    -4.000642
O     1.251391    -3.030638    -4.428003
H     0.927566    -2.662734    -5.276530
H     1.961438    -1.760423     2.980127
O     2.115094    -2.691694     2.763315
H     1.426993    -2.905485     2.098678
H    -3.028316    -1.817594    -3.203277
O    -2.603840    -0.931837    -3.141794
H    -3.259359    -0.285501    -3.460155
H    -3.182730     4.975367     1.074442
O    -3.964401     5.349567     0.620542
H    -4.377279     5.909513     1.326490
H     0.880544     2.247826     2.583394
O     0.980126     2.241112     1.611970
H     1.705597     1.616203     1.448074
H     0.196250     5.646429    -0.770710
O     0.718621     6.305976    -1.281859
H     0.862987     7.106852    -0.728085
H     0.357433     7.031502     2.575395
O    -0.006613     6.650283     1.759181
H     0.655530     5.977771     1.498180
H    -2.477909     0.217571     3.343150
O    -2.700044    -0.595360     3.849634
H    -1.938664    -0.634919     4.470327
H    -0.886383     0.558031     6.023850
O    -0.614565     0.036836     5.249754
H     0.097968    -0.567747     5.536496
H     0.699364    -5.001290     1.986197
O     0.158377    -5.107883     2.791861
H     0.301464    -6.028347     3.065483
H    -2.138423    -8.092086     0.464711
O    -1.813472    -7.602757     1.248043
H    -2.598267    -7.289844     1.705525
H    -0.374339     6.851511    -2.339092
O    -1.120868     7.271601    -2.837914
H    -1.910047     7.148438    -2.272362
H    -1.107727     4.304406     0.566153
O    -0.736475     4.362592    -0.330894
H    -1.445177     4.121364    -0.961191
H    -4.401999     2.753886     3.508084
O    -4.398048     2.926028     4.472292
H    -4.482623     2.043937     4.883244
H     2.020495    -3.587623     4.245228
O     1.957270    -4.058264     5.099283
H     2.466303    -3.521529     5.728282
H     4.678721    -3.212045     0.834473
O     4.517406    -3.136199    -0.132219
H     3.658385    -2.658670    -0.214192
H    -2.731041    -0.754040    -1.347860
O    -3.055859    -0.481466    -0.473344
H    -3.856143     0.045065    -0.679393
H    -1.632293    -0.775296    -4.629664
O    -1.124845    -0.561963    -5.434219
H    -0.414842     0.034584    -5.150112
H     1.778455    -1.734116    -3.379023
O     1.876721    -0.984984    -2.759544
H     1.098917    -0.407441    -2.887166
H     3.657302    -3.133988     2.547343
O     4.615697    -3.364968     2.471572
H     4.668800    -4.324919     2.601267
H     3.415578    -6.131807     3.126367
O     3.769947    -5.932368     2.225254
H     3.031603    -5.587429     1.683190
H    -3.353064     1.601929    -4.176110
O    -4.198030     1.132785    -3.983106
H    -4.414008     1.280629    -3.026308
H    -5.078536     4.149475     0.066258
O    -5.518699     3.283983    -0.034982
H    -6.449579     3.404347    -0.314895
H     6.728678    -1.209960    -1.367622
O     5.951912    -1.056194    -0.824250
H     5.532087    -1.922706    -0.620824
H     4.577355    -3.192064    -2.475133
O     3.711636    -3.016215    -2.893639
H     3.710433    -3.641230    -3.644934
H     4.436529    -2.301783     5.615639
O     4.093968    -2.765059     6.410127
H     4.426958    -3.670943     6.329714
H    -0.736214     6.340026     5.062791
O    -1.330716     6.917951     5.600948
H    -1.343310     7.794282     5.157969
H     4.690194    -0.158532    -1.476355
O     3.925012     0.385553    -1.741911
H     3.228949    -0.214056    -2.066273
H    -0.744955     4.509439    -4.045792
O    -1.527002     5.053150    -4.254052
H    -1.373998     5.920340    -3.832941
H     0.656710     3.189197    -2.666771
O     0.664252     3.563964    -3.576267
H     0.706523     2.799066    -4.160152
H    -5.395524    -5.187987     1.811752
O    -4.700720    -5.784615     1.456016
H    -3.858831    -5.370197     1.724598
H     7.872834    -1.721090    -4.052443
O     7.611679    -1.410060    -3.157617
H     7.124427    -0.564580    -3.309293
H     3.678525    -5.098612    -5.291744
O     4.441236    -4.722518    -4.813079
H     4.829088    -5.433383    -4.268711
H    -3.779866     0.026145     4.939715
O    -4.378225     0.492821     5.572517
H    -5.039285    -0.163256     5.867082
H     3.446879    -5.960739    -0.516493
O     4.318784    -5.714585    -0.837374
H     4.396901    -4.752597    -0.694261
H     4.987095    -0.360434    -4.164658
O     4.448037    -1.070107    -4.553717
H     4.121475    -1.655214    -3.835780
H    -1.181097     1.558209    -3.939305
O    -1.830623     2.179460    -4.325329
H    -1.474000     2.509066    -5.172663
H     4.863755    -6.345527    -2.316962
O     5.194419    -6.668546    -3.183764
H     6.010538    -7.154059    -2.999788
H     8.722495    -5.131501    -2.917569
O     8.023154    -5.543376    -2.365779
H     8.055975    -6.501242    -2.466039
H     2.344099     4.706398     0.436223
O     1.766386     4.691192     1.208507
H     1.407007     3.771900     1.288908
H    -4.417696    -2.626250     4.242693
O    -5.311351    -2.285338     4.041261
H    -5.174042    -1.505480     3.464166
H    -5.854998    -3.189805     1.332551
O    -6.317638    -3.744644     2.002725
H    -6.126784    -3.308067     2.852173
H     1.701700     3.469185     6.850693
O     1.078885     3.984904     6.316850
H     0.297358     4.140953     6.889759
H     4.998702    -2.182000     3.608300
O     5.022104    -1.462205     4.270598
H     4.210733    -0.904928     4.115071
H     2.383359    -5.581907     4.842326
O     2.761203    -6.466787     4.582908
H     2.014761    -7.047367     4.411705
H     2.225480    -4.547317    -6.788575
O     2.061513    -5.030414    -5.969176
H     1.798729    -4.336936    -5.315638
H     6.423838    -4.129195    -0.508238
O     7.179900    -4.529626    -0.047906
H     7.682590    -4.957772    -0.769273
H    -1.706169     4.499369     7.693791
O    -0.806162     4.596434     8.076829
H    -0.623482     5.555307     8.099484
H    -5.122730     5.684715    -5.599297
O    -4.516193     4.920244    -5.619321
H    -3.760199     5.132066    -6.187829
H     3.143800    -2.645569    -8.465346
O     3.079359    -3.109553    -7.618706
H     3.965077    -3.055207    -7.222071
H    -0.651031     8.815272    -2.296300
O    -0.525320     9.644461    -1.779423
H     0.237528     9.469738    -1.203561
H     2.069543    -0.915786     5.207789
O     1.496715    -1.439625     5.796883
H     1.592567    -1.092917     6.693374
H     5.147514    -2.062652    -5.596919
O     5.518042    -2.811980    -6.133906
H     5.227102    -3.615467    -5.632598
H     5.688694    -5.227137     4.682591
O     5.168090    -5.138969     5.509957
H     4.445583    -5.770264     5.427727
H    -3.963579     1.159149     7.010466
O    -3.768742     1.636394     7.852799
H    -4.643586     2.024275     8.114666
H    -1.838221     9.608642    -0.762990
O    -2.697893     9.484580    -0.286661
H    -3.308681     10.113649    -0.674207
H    -5.949672     4.687469    -2.938252
O    -6.859177     4.569703    -3.280555
H    -6.771697     3.865725    -3.956325
H     0.072409    -7.076030    -1.131911
O     0.537397    -7.510587    -0.383938
H    -0.140945    -7.703816     0.266273
H    -7.638906     3.794567    -1.968227
O    -7.899496     3.209567    -1.226366
H    -7.759346     2.299908    -1.564533
H     3.979804    -0.896486     6.978786
O     3.990188     0.067628     6.966901
H     4.802715     0.354844     6.534001
H     2.262624     5.780446    -1.197028
O     3.198047     5.485964    -1.084945
H     3.371397     4.943862    -1.877249
H     6.534700    -5.951947     0.669102
O     6.165259    -6.685791     1.205108
H     5.261705    -6.406466     1.433029
H    -3.848971     4.743801     7.777041
O    -3.284551     4.278564     7.117786
H    -3.479743     3.335773     7.230581
H     5.740191    -7.967966     0.140305
O     5.448668    -8.655886    -0.494333
H     4.620127    -8.328799    -0.888435
H    -0.543819     2.049323     7.688404
O    -1.178570     1.984489     6.954627
H    -2.046569     1.845517     7.353227
H    -6.386541    -0.114632     1.073157
O    -6.708362    -0.199478     0.160960
H    -7.627665    -0.468244     0.181057
H    -5.384830    -3.062694    -0.573531
O    -5.129475    -2.359435     0.049820
H    -5.698807    -1.586053    -0.137891
H     4.323752     5.560988     0.298839
O     4.660237     5.662208     1.202989
H     3.968113     6.174998     1.656173
H    -9.057365    -1.738984    -2.234081
O    -8.507185    -1.537250    -1.449709
H    -8.634968    -2.272262    -0.810206
H    -5.533629     3.463187    -5.525701
O    -6.051493     2.754308    -5.108627
H    -5.385515     2.168292    -4.694887
H     3.159967    -0.914768    -5.660325
O     2.305542    -1.033237    -6.128043
H     2.385632    -1.885974    -6.595406
H     8.077249    -1.313139    -5.968141
O     8.169075    -2.226947    -5.623227
H     7.268337    -2.587486    -5.773674
H     7.513913     1.073645    -6.287291
O     7.360441     0.207002    -6.694093
H     6.379214     0.144440    -6.730118
H    -7.872039    -3.682959     0.950983
O    -8.551253    -3.575753     0.267468
H    -8.456151    -4.336844    -0.332618
H    -2.392554     8.736034     1.278294
O    -2.241311     8.148623     2.032121
H    -1.472653     7.593686     1.808850
H    -4.429421     6.443416     3.490862
O    -4.600348     6.867735     2.633649
H    -3.836292     7.452221     2.491543
H     3.395472     3.422583    -3.593102
O     3.244883     4.392317    -3.502513
H     2.279676     4.459151    -3.606848
H    -6.131708    -1.608097    -3.428803
O    -6.213642    -2.185464    -2.643389
H    -6.996315    -1.876133    -2.133875
H     6.474163     1.037042     4.722451
O     6.082396     1.577961     5.424917
H     6.271679     2.495759     5.131995
H     1.347512     1.699660    -5.830744
O     1.154401     1.106051    -5.074457
H     1.513301     0.241008    -5.343114
H    -2.468007     2.981211     10.481112
O    -2.258043     2.072728     10.208970
H    -2.857845     1.872800     9.478395
H     7.626827    -0.517251     3.068075
O     6.878166     0.060743     3.235062
H     6.185407    -0.536783     3.618397
H    -5.683021    -8.052449    -0.675302
O    -4.946755    -8.121080    -0.030470
H    -4.948126    -7.302921     0.490109
H    -5.193113    -0.125748    -4.706665
O    -5.811758    -0.836874    -4.944087
H    -6.649657    -0.394144    -5.141029
H     1.869865    -0.227302    -7.520528
O     1.669256     0.244057    -8.365202
H     2.234553    -0.168589    -9.022228
H     4.825301    -1.409610    -9.397085
O     3.893311    -1.191936    -9.639252
H     3.890759    -1.096893    -10.594669
H     7.562059    -2.586724     4.187133
O     7.705806    -2.624902     3.227224
H     7.211176    -3.416332     2.959138
H     6.708313    -5.912636     2.681711
O     6.773046    -5.235125     3.380383
H     7.649210    -5.321846     3.797445
H    -1.801235     8.950279     3.480660
O    -1.550853     9.256158     4.377823
H    -2.398348     9.391471     4.834914
H    -7.403350     1.564155    -5.241108
O    -7.978857     0.821599    -4.993026
H    -8.879779     1.223023    -4.916202
H     6.887344    -1.131758    -8.452938
O     6.351262    -1.900228    -8.690546
H     6.065043    -2.256586    -7.826957
H    -1.684307     6.222175    -7.033969
O    -2.081335     5.397262    -6.758086
H    -1.832345     5.269087    -5.794249
H     0.019862     3.321124     9.014779
O     0.215550     2.401435     9.271179
H    -0.582249     2.139979     9.779913
H     6.740562    -2.812531    -2.714621
O     6.206772    -3.553482    -2.374368
H     6.674668    -4.367369    -2.613820
H    -4.099739    -3.082784    -4.930781
O    -4.254765    -2.971440    -5.895602
H    -4.801699    -2.178186    -5.952321
H     1.995735     2.188878     8.455090
O     2.658294     2.298182     7.763251
H     3.078417     1.426772     7.649203
H    -6.927297    -5.198052    -1.372683
O    -7.843905    -5.466186    -1.615705
H    -7.978645    -5.065368    -2.499246
H    -3.810879     5.267916     5.692448
O    -3.777640     6.034795     5.099639
H    -2.843000     6.327696     5.191525
H    -7.894542     0.092336    -1.952348
O    -7.403945     0.813961    -2.368402
H    -7.634467     0.801510    -3.321110
H     5.832927     0.109357     0.398525
O     5.614687     0.833666     1.017210
H     6.125038     0.638972     1.830399
H    -6.199401     3.331654     7.400319
O    -6.070743     2.814847     8.229716
H    -6.672872     2.054657     8.144363
H     2.253670    -8.089332    -0.832369
O     2.928780    -8.078107    -1.530404
H     2.702300    -8.793539    -2.141487
H    -2.771158    -3.976455    -6.185275
O    -2.016679    -4.542145    -5.954811
H    -1.739341    -4.250913    -5.057888
H    -5.631098     3.776592     5.311251
O    -6.278141     4.175679     5.928912
H    -6.112811     5.119378     5.913240
H    -1.045330    -7.127180    -3.147606
O    -0.570436    -6.456710    -2.622326
H     0.336581    -6.390744    -3.005039
H     4.453091     2.009370     5.114852
O     3.511805     2.250525     4.995726
H     3.129095     2.269525     5.878287
H     4.125812     4.653449     6.282253
O     4.207856     5.381581     5.661954
H     3.637517     5.141062     4.893122
H     2.774081     3.611512     3.908753
O     2.598802     4.551691     3.740863
H     2.477034     4.648411     2.774595
H     9.389562     0.181584    -1.087169
O     8.578447     0.343389    -0.601807
H     8.405375    -0.471069    -0.100479
H    -2.074480     5.339770     10.642711
O    -2.797272     4.713141     10.876757
H    -3.013630     4.892889     11.791925
H     7.961689    -3.035306     0.316448
O     8.383892    -2.187644     0.567483
H     8.321685    -2.180608     1.530109
H     5.378878     3.652986     3.505884
O     6.037897     3.918479     4.169147
H     5.627894     4.637881     4.671263
H    -4.184855     5.044621     9.781594
O    -4.818913     5.195159     9.060328
H    -5.432512     4.447958     9.060970
H    -7.030992    -3.478624    -3.465386
O    -7.653750    -4.089979    -3.911224
H    -7.135231    -4.534783    -4.613524
H     0.056082     6.144173     10.756875
O    -0.808393     6.476523     10.510518
H    -0.693508     6.905226     9.643190
H     2.577967     1.474551    -4.114985
O     3.459515     1.822933    -3.881065
H     3.777269     1.311308    -3.107022
H    -6.964594    -0.195884     7.232927
O    -7.470748     0.584489     7.512409
H    -8.095282     0.767396     6.809381
H    -2.770844    -9.877376    -0.805077
O    -2.706240    -8.936133    -0.966769
H    -3.610976    -8.567517    -0.725041
H    -10.078082     3.079242    -4.885742
O    -10.196137     2.162593    -4.602770
H    -10.410064     2.249094    -3.652840
H    -2.070664    -3.017883     4.623279
O    -2.946319    -3.455970     4.695701
H    -2.943177    -4.075615     3.940928
H    -0.195662    -7.985270     2.501656
O     0.632134    -7.774796     2.946895
H     1.348536    -8.074097     2.359482
H     6.708396    -2.384504     6.382773
O     7.155042    -3.095653     5.918647
H     6.523883    -3.829663     5.883962
H    -5.268365    -1.984644     6.957537
O    -5.944453    -1.486064     6.473814
H    -5.931217    -1.865320     5.565557
H     0.822726     3.009678    -7.122763
O     1.739528     2.676053    -7.180934
H     1.721387     1.928890    -7.806323
H    -3.928971     8.772349     6.660668
O    -3.928432     8.767797     5.703309
H    -4.056625     7.839954     5.438091
H    -2.049171     10.305175    -2.756622
O    -2.951197     10.487402    -3.056878
H    -2.880236     11.120194    -3.770888
H     9.404919    -4.081323     4.032725
O     9.123869    -4.757267     4.657029
H     8.697730    -4.282243     5.381395
H    -0.765412    -6.015648    -5.828577
O    -0.063693    -6.583213    -5.493284
H     0.773442    -6.126186    -5.713392
H     1.838464     8.265074     0.641850
O     1.534004     8.585228    -0.235936
H     2.347675     8.621067    -0.768023
H     3.485456     2.899530    -6.677503
O     4.312243     2.603390    -6.270513
H     4.068162     2.336773    -5.358909
H     3.739938     7.106670    -1.254450
O     3.947473     8.041378    -1.470349
H     4.314211     7.983060    -2.364458
H     4.366358    -0.039837    -7.924235
O     4.750986     0.107784    -7.058246
H     4.566259     1.039474    -6.812600
H     6.027531     1.911076    -0.494671
O     6.590631     2.098931    -1.259557
H     7.415484     1.620255    -1.064705
H     6.656388    -8.459880    -1.605044
O     7.289916    -8.248163    -2.342760
H     7.657016    -9.081044    -2.634210
H    -5.330781    -5.796403    -5.385578
O    -5.947007    -5.123474    -5.700182
H    -5.394668    -4.357273    -5.940337
H     0.707520     7.181282     7.582996
O    -0.193186     7.211306     7.944315
H    -0.750469     7.225487     7.128073
H    -8.918169    -2.830899    -4.078973
O    -9.436106    -2.020675    -3.912025
H    -9.150336    -1.358102    -4.544699
H    -2.433283    -5.995836    -2.126738
O    -3.310761    -5.706972    -2.394792
H    -3.501000    -6.084024    -3.278888
H    -3.015590    -5.913303    -5.392565
O    -3.615902    -6.519845    -4.917134
H    -3.136035    -7.341215    -4.749628
H    -1.401314     3.708416    -6.988501
O    -0.861748     2.951593    -6.718644
H    -1.103848     2.166223    -7.265679
H    -0.227884     0.391766    -8.217888
O    -1.122015     0.630493    -7.932391
H    -1.297340     0.108823    -7.133163
H    -10.426037     4.062269    -2.722619
O    -10.493748     3.284838    -2.152833
H    -9.663578     3.257983    -1.645367
H     4.586162     4.066911     1.700992
O     4.376082     3.146474     1.980162
H     5.091402     2.569144     1.700633
H     6.473933     1.369142    -4.235930
O     6.174140     0.742820    -3.542320
H     6.204657     1.238478    -2.698016
H     9.621995    -2.255674    -0.941892
O     9.897144    -2.037705    -1.841430
H     9.095814    -1.702140    -2.284209
H     9.994921    -3.376494    -2.948105
O     9.839377    -4.066174    -3.628995
H     9.422315    -3.582591    -4.353993
H    -7.725811    -8.569391    -1.633256
O    -6.987244    -7.976476    -1.764019
H    -7.363337    -7.062845    -1.755223
H     4.159479     6.056167    -3.844152
O     4.822352     6.756066    -3.762693
H     5.658113     6.301329    -3.625550
H     0.063233    -8.190214    -5.199388
O     0.085011    -9.172639    -5.065226
H     0.234269    -9.538971    -5.936950
H    -2.362743    -8.682164    -2.693858
O    -2.130092    -8.419910    -3.604146
H    -1.486281    -9.040887    -3.963753
H     2.149966    -10.835769    -3.479880
O     2.103083    -9.881288    -3.454907
H     1.317443    -9.610781    -3.980762
H     6.828206     3.297308    -4.597261
O     6.880801     2.617647    -5.297520
H     6.086602     2.755038    -5.836224
H    -3.562333    -3.705424     7.735275
O    -3.675762    -2.918552     7.203650
H    -3.427054    -3.160268     6.285373
H    -0.663895    -3.382721    -6.717217
O    -0.032513    -2.652028    -6.727896
H    -0.513090    -1.875553    -6.386655
H     0.655074     0.471170     8.748951
O     0.659545    -0.244862     8.109726
H    -0.263526    -0.531986     8.024996
H    -5.833409     7.364419    -4.256855
O    -6.338427     6.745104    -4.815480
H    -6.626256     6.016481    -4.221866
H    -4.272493     9.098538    -3.275512
O    -4.809167     8.303404    -3.166640
H    -4.400561     7.825059    -2.427117
H    -9.715344     5.800755    -4.639507
O    -10.249834     4.997447    -4.473086
H    -11.130803     5.199384    -4.790239
H     2.789396     6.516024     6.118959
O     1.829703     6.614564     6.218308
H     1.484054     5.701642     6.119143
H     4.815998     8.530189     0.054279
O     5.135347     8.532204     0.974478
H     5.540832     7.667421     1.106494
H     4.112984    -7.450632    -4.340743
O     3.348859    -7.733167    -4.875586
H     3.072293    -8.575413    -4.499674
H     0.398291     8.661093     4.213200
O     1.074071     8.014448     3.984988
H     1.301329     7.523075     4.800343
H     5.231686     4.167168    -3.178858
O     6.193223     4.130459    -3.131350
H     6.402224     3.553397    -2.380139
H    -2.571211    -1.529955     7.580788
O    -2.058773    -0.737151     7.797477
H    -2.682289    -0.108987     8.172286
H    -9.025931     7.940629    -4.146151
O    -8.965499     7.353876    -4.901478
H    -8.009101     7.187891    -5.038629
H     3.507284    -8.992959     1.100512
O     2.832925    -8.358672     1.349390
H     3.310345    -7.554376     1.627104
H     3.599269     8.161380     1.803122
O     2.808139     7.599333     1.918082
H     2.363736     7.837851     2.744440
N     8.747331    -3.830892    -8.178428
H     8.836309    -3.338342    -7.350923
H     8.039305    -3.359072    -8.633768
