24
Coordinates from ORCA-job grain_mol_opt.QMRegion
  H   2.22406307116738     -4.58735774653241     -6.68035938489458
  O   2.12069689095474     -5.04020541823433     -5.83326830966980
  H   1.85257661365103     -4.31888911831729     -5.20379089723292
  H   3.34136000881686     -2.51459981964251     -8.37925623578129
  O   3.24895565754782     -3.18518295674481     -7.66823344357321
  H   4.06998893885978     -3.08098490989163     -7.14821542474288
  H   5.23872783148145     -2.04552536551156     -5.53207011478865
  O   5.57443232709194     -2.80471639408882     -6.08039083816189
  H   5.31893085868841     -3.60432551864342     -5.55908479633172
  H   3.19547523950360     -0.93108956150828     -5.71410080875204
  O   2.30208283122071     -1.07030785717586     -6.08037921191880
  H   2.32220628828370     -1.91771764062363     -6.54994558796630
  H   4.82846437991842     -1.34498606819957     -9.29034325802615
  O   3.88989243530564     -1.22417799216114     -9.56502094780753
  H   3.82459094635890     -1.82768288039873    -10.31698876102548
  H   7.01005626095774     -1.08225284892895     -8.35866073003096
  O   6.40760826604402     -1.80034771451805     -8.60086946882061
  H   6.18674106431075     -2.19420041791586     -7.73564499287453
  H   4.56894386705361      0.18539164641399     -7.90558758779388
  O   4.80348636152263      0.21410717103574     -6.97351565688069
  H   4.67052944238400      1.16400706449843     -6.72459770240200
  O   4.75999767910598     -3.90676596905804    -10.29601265007967
  H   4.32962833338952     -4.17340027439224     -9.47135977078231
  H   5.63457844590802     -3.61535442922028    -10.00968425033803
