33
Coordinates from ORCA-job grain_mol_opt.QMRegion
  H   1.76704457675048      3.45809409138665      6.81891116003090
  O   1.16976270176339      3.98412487185142      6.26065441346992
  H   0.34760496368715      4.12392113034789      6.78349815348026
  H   -1.76066922195407      4.45065570504354      7.55434142168854
  O   -0.83982923217543      4.53860728460398      7.90502868451353
  H   -0.67695221042932      5.49991982188324      8.03895461327590
  H   -0.66311797308851      1.92376189831072      7.68010994202056
  O   -1.29824589026720      1.89025185465534      6.94976081834035
  H   -2.16203604766481      1.71475577389145      7.34646039548190
  H   -2.52386777350428      2.87275398932417     10.61610257057149
  O   -2.29250343544074      1.96634225941460     10.31818148690987
  H   -2.89101819740435      1.80676300039313      9.57339025904824
  H   -0.18400038765652      3.32945534184726      8.89780031798239
  O   0.16018721276746      2.49336185824680      9.30326822395893
  H   -0.63590596256222      2.18297372382645      9.80487667064714
  H   1.96755300663099      1.96210825268197      8.30610700218971
  O   2.75895712677763      2.22764343066965      7.82043905401234
  H   3.21268506546402      1.37850851586014      7.62423355673923
  H   -2.06054083517307      5.21619225819106     10.78655608577064
  O   -2.84588457202367      4.61902093283437     10.94305697224329
  H   -3.15695927476019      4.84827137814666     11.82353784926236
  H   0.11615228009738      5.69963452790464     10.75303377089673
  O   -0.71222106726772      6.21720586425194     10.71204079843920
  H   -0.64329327985855      6.71298733018043      9.88057852494738
  H   0.64077495239830      7.16348941695189      7.64324188387364
  O   -0.27741647997671      7.17961889205067      7.97602099810967
  H   -0.79117862354941      7.20185437112730      7.12931370977747
  H   2.83041307161033      6.62087597021280      6.11935625015916
  O   1.86556940904404      6.66482908181707      6.23337195627541
  H   1.59492850704207      5.72566512494226      6.10715543481647
  O   1.59384842415856      4.53657876326345     10.71624781167891
  H   1.28863729888378      3.68840466259800     10.34643227798371
  H   2.40367113112197      4.74216427382048     10.23935716166296
