603

H     0.194452     3.034802    -0.684809
O     0.718087     2.366625    -1.177868
H     1.656588     2.495828    -0.904161
H    -0.078474    -1.303274     3.145605
O     0.314088    -0.603421     2.601264
H    -0.163925     0.210222     2.833805
H    -2.404300     2.414704    -0.540298
O    -2.191438     1.942176     0.282691
H    -2.212496     0.994941     0.055314
H    -4.665158     0.551010     2.179034
O    -4.979826    -0.383257     2.195203
H    -4.479986    -0.859470     1.524106
H     0.060864    -0.305278     0.946078
O    -0.133690    -0.070642     0.018192
H     0.199565     0.828409    -0.101213
H    -0.155457    -3.574136     3.772803
O    -0.434234    -2.744074     4.193244
H     0.212112    -2.573040     4.894705
H    -4.890047     2.534331     1.329847
O    -4.248884     2.124307     1.942924
H    -3.407992     2.106595     1.427062
H    -3.254768     3.900542    -2.212915
O    -2.512650     3.309145    -1.982401
H    -2.170889     3.004151    -2.843996
H    -0.129823    -3.801060     0.497035
O     0.210997    -2.983947     0.914631
H    -0.575890    -2.496707     1.226890
H    -2.381073    -1.534611     2.463006
O    -2.191678    -2.000519     1.622101
H    -2.451590    -1.414100     0.892211
H     2.068202    -1.439352    -1.127380
O     2.300753    -1.693971    -0.210697
H     1.510881    -2.119704     0.173893
H    -1.396997     1.826888     1.906396
O    -1.483870     1.429523     2.783217
H    -1.470462     2.142355     3.447589
H     0.201360    -2.698885    -1.576570
O    -0.553680    -2.086960    -1.634049
H    -0.375483    -1.360995    -0.999035
H    -3.442569    -2.922331    -0.398218
O    -2.725456    -3.413411    -0.821084
H    -2.016393    -2.780860    -1.037185
H     2.769550     0.131597     2.926720
O     2.870046    -0.051284     3.888216
H     2.960924     0.841636     4.293011
H    -3.533421     6.383819    -0.547638
O    -3.294575     7.047997    -1.246222
H    -3.153846     7.892162    -0.774401
H     3.898160     0.587034     1.177990
O     2.947892     0.404772     1.294875
H     2.710014    -0.347120     0.715231
H    -5.789152     0.844638    -1.599520
O    -4.880385     1.167811    -1.454622
H    -4.994770     1.999833    -0.951727
H    -1.215090     5.400269     2.206190
O    -1.839544     4.652824     2.089866
H    -1.917653     4.234416     2.952407
H     3.488701     2.766753     0.418218
O     3.240948     2.724146    -0.520953
H     3.572837     1.881319    -0.871279
H     1.485976    -4.693366    -2.258451
O     1.549780    -3.915988    -1.685593
H     2.344483    -3.454556    -2.035803
H    -0.935898    -0.075920    -2.552607
O    -0.289732     0.566145    -2.874201
H    -0.034296     1.155216    -2.140709
H     1.694235    -4.681788    -0.186840
O     1.802487    -5.319605     0.554917
H     1.338389    -6.130395     0.259401
H    -1.235324    -3.258898    -2.890540
O    -1.061778    -3.943253    -3.551036
H    -0.933875    -4.789469    -3.080561
H    -2.782345     3.311421     4.700678
O    -1.801013     3.309112     4.666551
H    -1.507925     2.906999     5.502463
H     0.959873     5.037321     4.070508
O     0.013973     5.269859     4.123747
H    -0.458308     4.466596     4.380861
H    -1.736096    -4.645562    -0.377836
O    -0.971049    -5.187966    -0.094839
H    -1.318069    -5.873152     0.485693
H    -3.921814     5.836707    -2.605743
O    -4.275278     5.001724    -2.929461
H    -4.125990     4.961021    -3.898463
H    -2.434056    -3.685123     1.931112
O    -2.451723    -4.589915     2.305795
H    -1.512021    -4.827428     2.446993
H    -4.776669    -2.972894    -2.836975
O    -3.927114    -3.226168    -3.253149
H    -3.603762    -4.015799    -2.773711
H     0.337442     1.379883     4.608768
O     0.844583     2.139425     4.275495
H     0.892361     2.798830     4.981998
H    -4.660153    -5.166125    -1.573723
O    -5.362665    -4.814847    -1.000051
H    -5.148415    -5.167399    -0.115573
H     2.320247    -6.478680    -4.047826
O     1.982370    -6.149731    -3.194703
H     2.417197    -6.722789    -2.530927
H     0.453545    -3.370640    -4.016804
O     1.263531    -3.011599    -4.433614
H     0.960938    -2.631969    -5.280318
H     1.961063    -1.750121     2.974602
O     2.116386    -2.680933     2.756693
H     1.429822    -2.894107     2.090309
H    -3.031128    -1.825089    -3.110603
O    -2.592941    -0.940222    -3.133669
H    -3.276889    -0.309347    -3.437409
H    -3.194058     4.979488     1.076136
O    -3.975094     5.354523     0.622168
H    -4.390794     5.911042     1.328625
H     0.872456     2.256626     2.584853
O     0.973268     2.252247     1.613658
H     1.699935     1.628966     1.448990
H     0.183972     5.659893    -0.764219
O     0.706448     6.322167    -1.272213
H     0.847235     7.121823    -0.716246
H     0.340200     7.039257     2.585866
O    -0.022402     6.659245     1.768558
H     0.640907     5.988225     1.506534
H    -2.482889     0.218040     3.336649
O    -2.703525    -0.596310     3.841689
H    -1.942646    -0.635228     4.462863
H    -0.894455     0.556686     6.020191
O    -0.620880     0.037088     5.245688
H     0.092656    -0.566386     5.531881
H     0.706835    -4.990872     1.973098
O     0.165126    -5.101038     2.777757
H     0.310146    -6.021561     3.049800
H    -2.123846    -8.084532     0.442176
O    -1.800084    -7.597458     1.227171
H    -2.585516    -7.285414     1.684241
H    -0.386836     6.867277    -2.330153
O    -1.133237     7.287996    -2.828410
H    -1.923139     7.160909    -2.264472
H    -1.118312     4.313130     0.568212
O    -0.744650     4.374513    -0.327403
H    -1.451322     4.132365    -0.960698
H    -4.411611     2.750583     3.504534
O    -4.409431     2.920683     4.469389
H    -4.492638     2.037505     4.878084
H     2.022147    -3.579560     4.236244
O     1.959861    -4.052716     5.089083
H     2.466237    -3.515555     5.719879
H     4.683392    -3.192053     0.829226
O     4.522290    -3.116471    -0.137227
H     3.663302    -2.638830    -0.219633
H    -2.733504    -0.738060    -1.370700
O    -3.051612    -0.476618    -0.490887
H    -3.854450     0.051455    -0.689799
H    -1.538212    -0.850049    -4.645799
O    -0.869441    -0.702240    -5.345264
H    -0.239007    -0.086292    -4.941528
H     1.787414    -1.711512    -3.382414
O     1.883037    -0.964161    -2.761212
H     1.102184    -0.389193    -2.882968
H     3.659808    -3.119300     2.541446
O     4.618756    -3.348690     2.467224
H     4.673481    -4.308705     2.594526
H     3.423325    -6.119032     3.113926
O     3.778188    -5.918701     2.213174
H     3.040520    -5.571946     1.671323
H    -3.400767     1.558184    -4.122086
O    -4.257783     1.104885    -3.914234
H    -4.436253     1.259994    -2.949530
H    -5.089950     4.153716     0.065236
O    -5.531103     3.288309    -0.028291
H    -6.459003     3.405622    -0.319688
H     6.728517    -1.179688    -1.373076
O     5.956410    -1.030252    -0.821098
H     5.537285    -1.897867    -0.623371
H     4.586525    -3.164824    -2.480048
O     3.718779    -2.993897    -2.896349
H     3.722202    -3.613465    -3.651724
H     4.433971    -2.291695     5.612100
O     4.092072    -2.757519     6.405514
H     4.426737    -3.662564     6.323183
H    -0.755096     6.340675     5.071041
O    -1.351024     6.916596     5.609914
H    -1.365260     7.793548     5.168197
H     4.693006    -0.133629    -1.474720
O     3.925735     0.409071    -1.736852
H     3.232748    -0.190810    -2.066754
H    -0.751528     4.527244    -4.040566
O    -1.531572     5.071802    -4.253957
H    -1.382745     5.937110    -3.828094
H     0.650524     3.208964    -2.663516
O     0.658914     3.584740    -3.572402
H     0.702307     2.820262    -4.156637
H    -5.387270    -5.190017     1.791098
O    -4.690861    -5.785870     1.436471
H    -3.850419    -5.369062     1.705767
H     7.873311    -1.687067    -4.045893
O     7.616033    -1.374306    -3.146121
H     7.128950    -0.530261    -3.301790
H     3.692114    -5.069664    -5.300078
O     4.454502    -4.695592    -4.819672
H     4.839689    -5.406176    -4.273658
H    -3.785711     0.021170     4.931460
O    -4.385057     0.484940     5.565654
H    -5.045659    -0.172783     5.857222
H     3.458559    -5.939215    -0.528162
O     4.330278    -5.692117    -0.848853
H     4.407406    -4.729963    -0.703940
H     4.990098    -0.332145    -4.172185
O     4.454031    -1.043418    -4.561531
H     4.130053    -1.626873    -3.842663
H    -1.169552     1.566418    -3.887032
O    -1.856992     2.153449    -4.264577
H    -1.497287     2.568704    -5.076515
H     4.876958    -6.319026    -2.326405
O     5.208995    -6.644029    -3.192435
H     6.027180    -7.124921    -3.006373
H     8.732281    -5.089535    -2.932166
O     8.041016    -5.507272    -2.373792
H     8.075789    -6.464619    -2.475602
H     2.332860     4.722863     0.444278
O     1.755387     4.704705     1.216733
H     1.396924     3.784764     1.293996
H    -4.417744    -2.630962     4.228783
O    -5.311863    -2.291532     4.027413
H    -5.175261    -1.510509     3.451347
H    -5.850545    -3.192573     1.314868
O    -6.311466    -3.750474     1.984341
H    -6.123218    -3.313983     2.834371
H     1.686660     3.471223     6.855761
O     1.063354     3.986817     6.322437
H     0.280798     4.139961     6.894596
H     4.998011    -2.166670     3.605810
O     5.019297    -1.448646     4.270050
H     4.207261    -0.892098     4.114284
H     2.389152    -5.574032     4.829715
O     2.768604    -6.458133     4.569234
H     2.023114    -7.039372     4.396201
H     2.240873    -4.512776    -6.799174
O     2.077081    -5.003089    -5.983459
H     1.813782    -4.313523    -5.326278
H     6.433209    -4.100843    -0.514813
O     7.186928    -4.504092    -0.052579
H     7.693583    -4.926629    -0.773878
H    -1.723968     4.492552     7.697307
O    -0.824783     4.590866     8.082048
H    -0.643998     5.550071     8.105965
H    -5.131720     5.692012    -5.598113
O    -4.521335     4.931147    -5.618364
H    -3.765751     5.148791    -6.184238
H     3.270126    -2.524291    -8.445765
O     3.183252    -3.055345    -7.643475
H     4.060534    -3.032122    -7.215674
H    -0.668379     8.829984    -2.283241
O    -0.543836     9.659180    -1.765598
H     0.218433     9.484475    -1.189010
H     2.064829    -0.909693     5.203906
O     1.493359    -1.436421     5.791888
H     1.587126    -1.090498     6.688893
H     5.194887    -2.020919    -5.703372
O     5.540320    -2.787168    -6.226149
H     5.267813    -3.577216    -5.707973
H     5.692985    -5.212897     4.674751
O     5.171741    -5.128151     5.502031
H     4.449905    -5.759852     5.417105
H    -3.973780     1.149313     7.004753
O    -3.780960     1.624903     7.848617
H    -4.656814     2.010691     8.110053
H    -1.857153     9.618988    -0.749466
O    -2.716561     9.493748    -0.273053
H    -3.329004     10.120046    -0.662488
H    -5.957573     4.691530    -2.940639
O    -6.865010     4.573508    -3.287625
H    -6.771075     3.866895    -3.961859
H     0.086284    -7.060076    -1.149357
O     0.551400    -7.497513    -0.403440
H    -0.126522    -7.691546     0.247051
H    -7.642675     3.795717    -1.977242
O    -7.904145     3.210809    -1.235276
H    -7.761707     2.301264    -1.574296
H     3.973352    -0.890090     6.977098
O     3.982285     0.074052     6.968461
H     4.793962     0.364025     6.535746
H     2.251116     5.799801    -1.186615
O     3.187211     5.507486    -1.073952
H     3.362474     4.967209    -1.867309
H     6.544660    -5.927380     0.660136
O     6.176345    -6.664046     1.193567
H     5.272295    -6.386633     1.422038
H    -3.867449     4.732787     7.778569
O    -3.301012     4.269854     7.119566
H    -3.494972     3.326515     7.229575
H     5.756191    -7.943182     0.126580
O     5.467825    -8.630217    -0.510918
H     4.638264    -8.304535    -0.904139
H    -0.556874     2.044990     7.688284
O    -1.190655     1.980269     6.953754
H    -2.058923     1.838964     7.350917
H    -6.391339    -0.117640     1.066023
O    -6.709471    -0.207034     0.153400
H    -7.629625    -0.472562     0.168903
H    -5.379620    -3.056557    -0.592501
O    -5.125727    -2.358977     0.037396
H    -5.693833    -1.583581    -0.148271
H     4.311403     5.581186     0.310788
O     4.646784     5.681818     1.215488
H     3.952717     6.191858     1.668767
H    -9.052135    -1.740333    -2.250905
O    -8.505064    -1.540110    -1.464058
H    -8.632399    -2.276623    -0.827004
H    -5.555151     3.509232    -5.525324
O    -6.078712     2.806759    -5.101706
H    -5.417761     2.255480    -4.634997
H     3.166386    -0.886308    -5.664723
O     2.310428    -1.009002    -6.130681
H     2.401520    -1.856863    -6.606143
H     8.102988    -1.346736    -6.042435
O     8.111729    -2.210848    -5.586283
H     7.255312    -2.610853    -5.835634
H     7.609097     0.993275    -6.322484
O     7.419304     0.145452    -6.736429
H     6.438009     0.095411    -6.770487
H    -7.865083    -3.689702     0.932380
O    -8.545714    -3.584317     0.250014
H    -8.446969    -4.342578    -0.352695
H    -2.412297     8.740843     1.289500
O    -2.260037     8.152820     2.042664
H    -1.490769     7.599125     1.818330
H    -4.446524     6.439993     3.495233
O    -4.617790     6.866615     2.639347
H    -3.854168     7.451935     2.498530
H     3.392602     3.450339    -3.585132
O     3.238309     4.419804    -3.493287
H     2.273040     4.483142    -3.598834
H    -6.127586    -1.598571    -3.433843
O    -6.206237    -2.187719    -2.654397
H    -6.986750    -1.879175    -2.142296
H     6.465999     1.052987     4.727936
O     6.072984     1.591556     5.431548
H     6.259847     2.510384     5.140030
H     1.356230     1.733530    -5.824881
O     1.178262     1.137622    -5.067327
H     1.535710     0.275488    -5.346372
H    -2.485885     2.967499     10.480444
O    -2.274017     2.059801     10.207206
H    -2.872192     1.860171     9.475175
H     7.623873    -0.495584     3.071186
O     6.874121     0.080352     3.240212
H     6.181930    -0.519509     3.620596
H    -5.666778    -8.049531    -0.702206
O    -4.930822    -8.118425    -0.056943
H    -4.934201    -7.301438     0.465716
H    -5.331507    -0.172043    -4.774353
O    -5.990891    -0.874266    -4.924496
H    -6.827332    -0.391504    -5.062235
H     1.879331    -0.194957    -7.522317
O     1.668178     0.272297    -8.367077
H     2.248959    -0.127636    -9.019831
H     4.856461    -1.388784    -9.313719
O     3.931343    -1.159172    -9.596209
H     3.911326    -1.279594    -10.544911
H     7.561147    -2.567838     4.187367
O     7.707359    -2.604317     3.227786
H     7.213378    -3.394976     2.956560
H     6.716695    -5.892395     2.673077
O     6.778851    -5.216983     3.373855
H     7.655051    -5.301770     3.791156
H    -1.823363     8.951904     3.492608
O    -1.574944     9.256687     4.390827
H    -2.423428     9.389136     4.846876
H    -7.400073     1.565038    -5.245572
O    -7.984984     0.827198    -5.001733
H    -8.882314     1.234242    -4.923103
H     6.911550    -1.080176    -8.416948
O     6.328305    -1.800519    -8.679799
H     6.102422    -2.250937    -7.847572
H    -1.689905     6.242383    -7.028020
O    -2.081724     5.412906    -6.758383
H    -1.837033     5.284608    -5.793086
H     0.002703     3.315233     9.017508
O     0.200141     2.395599     9.272913
H    -0.597939     2.131474     9.779802
H     6.747389    -2.776818    -2.716316
O     6.216821    -3.521233    -2.375825
H     6.685778    -4.331948    -2.621723
H    -4.204863    -3.079348    -4.909141
O    -4.341992    -2.909366    -5.873428
H    -5.066383    -2.256622    -5.872770
H     1.981234     2.188022     8.457874
O     2.644721     2.300274     7.767416
H     3.066501     1.429907     7.651587
H    -6.915921    -5.196940    -1.394081
O    -7.830930    -5.468485    -1.639874
H    -7.966253    -5.063359    -2.521261
H    -3.828162     5.260936     5.694990
O    -3.795903     6.029692     5.104658
H    -2.861785     6.323788     5.197509
H    -7.893423     0.091605    -1.966285
O    -7.407511     0.820173    -2.374684
H    -7.626149     0.807859    -3.330155
H     5.831651     0.133364     0.401463
O     5.610557     0.855247     1.022069
H     6.121098     0.660237     1.834828
H    -6.214115     3.316643     7.396792
O    -6.085793     2.798371     8.225411
H    -6.686192     2.037103     8.137456
H     2.270934    -8.069997    -0.849127
O     2.946253    -8.057135    -1.547000
H     2.720953    -8.771925    -2.159051
H    -2.740257    -3.985802    -6.162778
O    -1.982260    -4.536333    -5.913713
H    -1.719718    -4.236491    -5.010814
H    -5.645067     3.766710     5.308831
O    -6.292734     4.163317     5.927569
H    -6.130218     5.107514     5.912434
H    -1.027710    -7.110360    -3.167585
O    -0.555934    -6.438298    -2.642028
H     0.352515    -6.370897    -3.021103
H     4.442789     2.020487     5.119959
O     3.501144     2.259753     5.000452
H     3.117363     2.276449     5.882550
H     4.108596     4.661492     6.291953
O     4.189804     5.391306     5.673526
H     3.621071     5.151079     4.903267
H     2.761722     3.621708     3.914849
O     2.584851     4.561943     3.749095
H     2.463728     4.660408     2.782783
H     9.386746     0.213749    -1.084338
O     8.580570     0.376552    -0.591066
H     8.405180    -0.441798    -0.097022
H    -2.097081     5.326774     10.647147
O    -2.818648     4.698099     10.879555
H    -3.036367     4.875965     11.794751
H     7.966578    -3.006520     0.315486
O     8.388325    -2.159992     0.569887
H     8.323136    -2.154573     1.532263
H     5.367675     3.668855     3.514932
O     6.024702     3.934208     4.180474
H     5.612299     4.652064     4.682784
H    -4.206143     5.028504     9.783467
O    -4.840061     5.179686     9.062257
H    -5.451793     4.430952     9.060073
H    -7.022606    -3.468322    -3.482535
O    -7.641234    -4.083947    -3.930851
H    -7.122273    -4.525212    -4.632989
H     0.031428     6.134991     10.765039
O    -0.833346     6.466767     10.518951
H    -0.718612     6.896725     9.652156
H     2.584205     1.504690    -4.110988
O     3.465011     1.853981    -3.872905
H     3.782259     1.338459    -3.101731
H    -6.972289    -0.212100     7.221221
O    -7.480706     0.566224     7.502422
H    -8.104073     0.750230     6.798625
H    -2.751455    -9.868335    -0.832174
O    -2.688789    -8.926957    -0.993809
H    -3.594240    -8.560118    -0.750717
H    -10.079608     3.083953    -4.890460
O    -10.202477     2.166950    -4.610798
H    -10.412341     2.250344    -3.659779
H    -2.070363    -3.018982     4.611063
O    -2.944749    -3.459830     4.682163
H    -2.940105    -4.076878     3.925375
H    -0.183235    -7.978010     2.481490
O     0.643844    -7.767881     2.928221
H     1.361329    -8.063829     2.340510
H     6.705403    -2.371340     6.381009
O     7.154092    -3.081606     5.917463
H     6.523684    -3.816112     5.880103
H    -5.272462    -1.996903     6.943894
O    -5.949479    -1.499094     6.460750
H    -5.933776    -1.875701     5.551307
H     0.826528     3.038446    -7.120904
O     1.742827     2.705584    -7.181641
H     1.725950     1.955835    -7.804377
H    -3.954505     8.762663     6.670510
O    -3.953124     8.760951     5.713145
H    -4.078811     7.833551     5.445063
H    -2.067491     10.318499    -2.741806
O    -2.969450     10.501286    -3.041993
H    -2.898303     11.133571    -3.756419
H     9.407259    -4.057862     4.030988
O     9.128152    -4.736019     4.653826
H     8.699249    -4.263610     5.378314
H    -0.748183    -5.992317    -5.844980
O    -0.044242    -6.558236    -5.513747
H     0.791907    -6.096592    -5.731200
H     1.819944     8.279782     0.656361
O     1.516130     8.602122    -0.220732
H     2.330114     8.639434    -0.752193
H     3.487369     2.934475    -6.669674
O     4.314755     2.641033    -6.262608
H     4.071387     2.369612    -5.352179
H     3.725699     7.129020    -1.239898
O     3.932314     8.064557    -1.453702
H     4.299938     8.008156    -2.347617
H     4.382107    -0.002877    -7.922443
O     4.757091     0.141358    -7.051908
H     4.578085     1.073924    -6.807721
H     6.023608     1.936980    -0.487216
O     6.588300     2.129083    -1.249755
H     7.413032     1.649780    -1.055884
H     6.674747    -8.428325    -1.617600
O     7.309660    -8.218108    -2.355256
H     7.676509    -9.052482    -2.642553
H    -5.308761    -5.783570    -5.408456
O    -5.923352    -5.111218    -5.727596
H    -5.374901    -4.342575    -5.963022
H     0.684010     7.179544     7.594388
O    -0.217125     7.207376     7.954886
H    -0.773431     7.221875     7.137842
H    -8.908170    -2.824812    -4.098559
O    -9.432080    -2.019218    -3.930282
H    -9.143095    -1.349842    -4.554485
H    -2.417964    -5.984809    -2.142810
O    -3.295815    -5.697739    -2.411412
H    -3.486428    -6.075757    -3.293973
H    -2.997851    -5.902123    -5.406163
O    -3.601065    -6.510461    -4.937991
H    -3.119377    -7.329712    -4.764512
H    -1.351346     3.818285    -6.996889
O    -0.859966     3.040096    -6.682542
H    -1.083268     2.259612    -7.242914
H    -0.125320     0.417634    -8.160462
O    -1.021380     0.615387    -7.831834
H    -1.081334     0.162210    -6.965012
H    -10.431003     4.060445    -2.728686
O    -10.499234     3.283896    -2.157783
H    -9.666594     3.255128    -1.654060
H     4.575433     4.085061     1.710465
O     4.368042     3.164041     1.989630
H     5.083423     2.588266     1.706967
H     6.475289     1.401014    -4.231087
O     6.173152     0.776257    -3.537337
H     6.204095     1.271860    -2.693504
H     9.625399    -2.223360    -0.943469
O     9.901012    -2.009737    -1.843768
H     9.100382    -1.670244    -2.286113
H     9.959373    -3.318760    -3.112614
O     9.691756    -3.970662    -3.787529
H     9.297526    -3.462860    -4.507332
H    -7.707491    -8.568642    -1.660684
O    -6.969618    -7.975211    -1.793202
H    -7.346684    -7.061609    -1.782111
H     4.150391     6.084889    -3.830590
O     4.811998     6.786023    -3.748217
H     5.648068     6.332097    -3.609921
H     0.085494    -8.167054    -5.219398
O     0.108072    -9.149499    -5.087832
H     0.259282    -9.513681    -5.960100
H    -2.344497    -8.667971    -2.717425
O    -2.110871    -8.404853    -3.627526
H    -1.465133    -9.024312    -3.986046
H     2.172396    -10.812891    -3.500451
O     2.126656    -9.858298    -3.477561
H     1.340171    -9.587915    -4.002004
H     6.825379     3.333339    -4.586336
O     6.883040     2.655455    -5.287680
H     6.088845     2.788878    -5.827205
H    -3.563405    -3.716192     7.719924
O    -3.678085    -2.928294     7.190113
H    -3.428066    -3.167228     6.271449
H    -0.472700    -3.455792    -6.755122
O     0.151940    -2.724525    -6.864863
H    -0.301225    -1.971743    -6.444336
H     0.643886     0.467535     8.746489
O     0.650815    -0.247975     8.106687
H    -0.271686    -0.536301     8.019684
H    -5.847460     7.370645    -4.250839
O    -6.351182     6.753512    -4.812627
H    -6.634525     6.018547    -4.223651
H    -4.287679     9.108818    -3.264615
O    -4.823865     8.313110    -3.158263
H    -4.414793     7.832242    -2.420583
H    -9.721460     5.803915    -4.642036
O    -10.255977     5.000434    -4.476330
H    -11.136140     5.200945    -4.796419
H     2.768801     6.521460     6.131120
O     1.808895     6.618098     6.230445
H     1.464921     5.704892     6.128125
H     4.797500     8.551929     0.072654
O     5.116809     8.553289     0.992933
H     5.522646     7.688480     1.123880
H     4.131102    -7.422143    -4.351229
O     3.372271    -7.707132    -4.892534
H     3.092890    -8.548103    -4.515762
H     0.374980     8.665482     4.227070
O     1.053329     8.021539     3.998834
H     1.279945     7.528406     4.813237
H     5.225933     4.195710    -3.168594
O     6.187486     4.164707    -3.117547
H     6.396896     3.583955    -2.369311
H    -2.576833    -1.537913     7.570946
O    -2.066018    -0.745003     7.790987
H    -2.691557    -0.118208     8.164761
H    -9.038138     7.941659    -4.143098
O    -8.975801     7.359775    -4.902022
H    -8.018668     7.192489    -5.035522
H     3.524528    -8.975399     1.083544
O     2.847567    -8.343445     1.331077
H     3.321947    -7.538146     1.611806
H     3.579967     8.177535     1.819706
O     2.790108     7.613459     1.932799
H     2.344038     7.849468     2.758942
N    -3.694918    -0.132734    -6.871123
H    -3.562271    -1.084005    -6.770090
H    -3.191927     0.099314    -7.658512
