603

H     0.212974     3.012211    -0.682411
O     0.737206     2.344108    -1.174840
H     1.675208     2.473498    -0.899604
H    -0.063854    -1.321036     3.152758
O     0.329149    -0.620838     2.608683
H    -0.150079     0.192243     2.840424
H    -2.385681     2.391160    -0.539986
O    -2.173381     1.921457     0.284001
H    -2.193151     0.973174     0.060497
H    -4.650597     0.530717     2.178623
O    -4.967345    -0.402524     2.193238
H    -4.463486    -0.881512     1.527076
H     0.076841    -0.325473     0.954010
O    -0.115619    -0.090812     0.025459
H     0.218122     0.807943    -0.093799
H    -0.143526    -3.591139     3.783559
O    -0.420441    -2.758708     4.201295
H     0.223928    -2.589063     4.904753
H    -4.874466     2.513233     1.324008
O    -4.234702     2.105350     1.939591
H    -3.391969     2.087001     1.427214
H    -3.235338     3.876308    -2.218152
O    -2.497178     3.280232    -1.986306
H    -2.138878     2.991073    -2.845446
H    -0.112579    -3.823472     0.512451
O     0.230079    -3.002628     0.923677
H    -0.557161    -2.516743     1.236898
H    -2.365730    -1.554019     2.470610
O    -2.173433    -2.019512     1.630261
H    -2.434538    -1.434853     0.899911
H     2.084518    -1.464072    -1.117482
O     2.319353    -1.718834    -0.201641
H     1.528996    -2.142864     0.185668
H    -1.380023     1.809009     1.908918
O    -1.470002     1.412265     2.785501
H    -1.457670     2.125379     3.449732
H     0.219348    -2.725294    -1.562987
O    -0.531036    -2.108969    -1.623621
H    -0.353890    -1.384508    -0.987105
H    -3.424467    -2.944937    -0.389476
O    -2.705699    -3.435624    -0.809148
H    -1.996252    -2.804776    -1.026675
H     2.782802     0.114958     2.936235
O     2.884144    -0.066313     3.897579
H     2.973485     0.827158     4.301616
H    -3.517225     6.360682    -0.553416
O    -3.278093     7.022361    -1.254347
H    -3.137430     7.868190    -0.785043
H     3.913827     0.567866     1.187491
O     2.963502     0.385287     1.302173
H     2.726522    -0.368115     0.724589
H    -5.767761     0.820525    -1.608574
O    -4.857484     1.148788    -1.482695
H    -4.969381     1.977701    -0.972112
H    -1.201392     5.381773     2.202890
O    -1.825399     4.633923     2.086204
H    -1.904647     4.216651     2.949299
H     3.505303     2.746993     0.424233
O     3.259139     2.702239    -0.515456
H     3.591024     1.858619    -0.863269
H     1.501865    -4.728822    -2.246174
O     1.569643    -3.950053    -1.678668
H     2.360915    -3.484497    -2.028338
H    -0.907656    -0.107260    -2.549651
O    -0.270909     0.543559    -2.872691
H    -0.013960     1.127958    -2.136142
H     1.703957    -4.705969    -0.166103
O     1.816908    -5.340870     0.575327
H     1.347788    -6.153530     0.282553
H    -1.215914    -3.294213    -2.874458
O    -1.030003    -3.972461    -3.536703
H    -0.910096    -4.824310    -3.071699
H    -2.771015     3.296210     4.698638
O    -1.789619     3.293914     4.665193
H    -1.497510     2.893299     5.502298
H     0.971358     5.021848     4.070388
O     0.025275     5.253976     4.120822
H    -0.447052     4.451361     4.380025
H    -1.718116    -4.670796    -0.364560
O    -0.950174    -5.203536    -0.073752
H    -1.295569    -5.899856     0.495081
H    -3.905102     5.810039    -2.607774
O    -4.254770     4.975087    -2.936512
H    -4.100243     4.939300    -3.904713
H    -2.417487    -3.705624     1.939729
O    -2.436886    -4.607646     2.319845
H    -1.497384    -4.848298     2.458027
H    -4.679458    -3.003699    -2.897039
O    -3.826166    -3.234546    -3.302493
H    -3.496836    -4.030909    -2.839406
H     0.349316     1.365055     4.613141
O     0.856802     2.124201     4.278997
H     0.903346     2.784682     4.984635
H    -4.639614    -5.192581    -1.567039
O    -5.341386    -4.836724    -0.994282
H    -5.129776    -5.191535    -0.109735
H     2.132820    -6.697888    -4.095774
O     2.023377    -6.269044    -3.229972
H     2.369154    -6.910875    -2.575067
H     0.481010    -3.408687    -3.999013
O     1.285503    -3.048317    -4.428603
H     0.959134    -2.666812    -5.270587
H     1.973968    -1.767044     2.985773
O     2.133097    -2.696960     2.767279
H     1.445126    -2.914101     2.103196
H    -2.999785    -1.832435    -3.208515
O    -2.577267    -0.945302    -3.146679
H    -3.234376    -0.300969    -3.465513
H    -3.179442     4.958322     1.071716
O    -3.960636     5.331376     0.616116
H    -4.376575     5.889802     1.321435
H     0.886155     2.238974     2.588824
O     0.988472     2.233386     1.617618
H     1.715108     1.609670     1.455054
H     0.202184     5.637726    -0.765410
O     0.724580     6.298673    -1.274813
H     0.865560     7.099588    -0.720288
H     0.352881     7.021573     2.581808
O    -0.008259     6.640128     1.764424
H     0.655770     5.968983     1.504790
H    -2.469293     0.201228     3.339711
O    -2.690993    -0.612121     3.845509
H    -1.930967    -0.651114     4.467664
H    -0.884594     0.543594     6.024305
O    -0.609087     0.024132     5.250366
H     0.103038    -0.580010     5.538703
H     0.721608    -5.011579     1.988163
O     0.181125    -5.116924     2.794254
H     0.320619    -6.039728     3.064091
H    -2.102567    -8.108761     0.458054
O    -1.785358    -7.612284     1.241422
H    -2.575035    -7.307366     1.695501
H    -0.367371     6.842400    -2.334375
O    -1.113595     7.261252    -2.834599
H    -1.903877     7.135941    -2.270984
H    -1.101790     4.292208     0.567799
O    -0.728456     4.351712    -0.328320
H    -1.435238     4.109223    -0.960390
H    -4.399349     2.732970     3.501583
O    -4.397596     2.904721     4.465875
H    -4.481493     2.022188     4.876198
H     2.035242    -3.594780     4.249862
O     1.972709    -4.065429     5.103793
H     2.476576    -3.526501     5.734667
H     4.699691    -3.205171     0.851628
O     4.542814    -3.129160    -0.117217
H     3.680916    -2.655278    -0.203414
H    -2.709787    -0.769217    -1.352601
O    -3.036084    -0.496125    -0.478786
H    -3.838242     0.026993    -0.686196
H    -1.603546    -0.786643    -4.632298
O    -1.092772    -0.572556    -5.434794
H    -0.386816     0.027520    -5.148375
H     1.804921    -1.739027    -3.374909
O     1.901664    -0.990849    -2.755187
H     1.122479    -0.414179    -2.881965
H     3.675098    -3.135473     2.556250
O     4.633982    -3.366406     2.480360
H     4.684020    -4.327671     2.608582
H     3.439776    -6.136086     3.135085
O     3.799869    -5.929866     2.238060
H     3.059273    -5.595990     1.692333
H    -3.330587     1.587517    -4.180376
O    -4.174969     1.116732    -3.989906
H    -4.393518     1.262784    -3.033352
H    -5.071501     4.128882     0.058624
O    -5.509161     3.262365    -0.043855
H    -6.439785     3.380291    -0.325869
H     6.750658    -1.197782    -1.354700
O     5.975702    -1.049116    -0.807124
H     5.556681    -1.915931    -0.606150
H     4.608476    -3.184256    -2.459133
O     3.743063    -3.016515    -2.879344
H     3.747502    -3.637811    -3.633012
H     4.446291    -2.303895     5.626486
O     4.104687    -2.767045     6.421197
H     4.436817    -3.673145     6.340828
H    -0.744916     6.326477     5.066369
O    -1.341724     6.902909     5.603517
H    -1.355420     7.779373     5.160861
H     4.710636    -0.156108    -1.463378
O     3.943773     0.384864    -1.729377
H     3.250419    -0.215985    -2.056716
H    -0.728997     4.500417    -4.043019
O    -1.511630     5.042596    -4.252933
H    -1.361601     5.909850    -3.830934
H     0.672293     3.182566    -2.661521
O     0.681501     3.558028    -3.570716
H     0.726528     2.793696    -4.155106
H    -5.372180    -5.209108     1.799941
O    -4.675393    -5.802812     1.444288
H    -3.834359    -5.388863     1.715887
H     7.897167    -1.709315    -4.029753
O     7.637571    -1.396862    -3.130427
H     7.149900    -0.552334    -3.286835
H     3.597100    -4.984237    -5.255812
O     4.411632    -4.695375    -4.803460
H     4.736932    -5.409828    -4.214544
H    -3.774691     0.006132     4.933273
O    -4.375201     0.471371     5.565135
H    -5.035573    -0.186421     5.857740
H     3.513723    -5.895175    -0.475995
O     4.391740    -5.615627    -0.757981
H     4.410169    -4.643807    -0.591253
H     5.013892    -0.357392    -4.160762
O     4.484295    -1.074374    -4.549011
H     4.151619    -1.649476    -3.827680
H    -1.158218     1.547889    -3.939177
O    -1.808081     2.168153    -4.325891
H    -1.450869     2.499062    -5.172463
H     4.937628    -6.173353    -2.193056
O     5.319079    -6.472300    -3.066244
H     6.279392    -6.372354    -2.979201
H     8.765832    -5.126982    -2.938367
O     8.064696    -5.594009    -2.423769
H     8.264146    -6.543644    -2.361544
H     2.349300     4.702057     0.445864
O     1.770347     4.685081     1.217168
H     1.412447     3.765073     1.296192
H    -4.404982    -2.647825     4.233500
O    -5.298768    -2.307665     4.031100
H    -5.161766    -1.527950     3.453922
H    -5.834672    -3.212208     1.319937
O    -6.299114    -3.766788     1.988832
H    -6.110121    -3.331184     2.839022
H     1.695047     3.460190     6.858428
O     1.072574     3.975004     6.323333
H     0.289220     4.128920     6.894411
H     5.010930    -2.182619     3.620165
O     5.033133    -1.462495     4.281884
H     4.220284    -0.906803     4.126334
H     2.400731    -5.589679     4.846050
O     2.781780    -6.473267     4.588609
H     2.036822    -7.054612     4.412499
H     2.272546    -4.485377    -6.804854
O     2.121459    -4.998338    -5.999515
H     1.818756    -4.331733    -5.329964
H     6.449494    -4.120606    -0.498589
O     7.209718    -4.527895    -0.050415
H     7.706478    -4.955733    -0.770344
H    -1.716803     4.482214     7.694315
O    -0.817736     4.581289     8.079200
H    -0.637501     5.540559     8.102890
H    -5.105913     5.666785    -5.605823
O    -4.497356     4.903879    -5.624817
H    -3.740716     5.117697    -6.191639
H     3.297780    -2.551235    -8.434254
O     3.215757    -3.090297    -7.636193
H     4.090180    -3.054789    -7.202556
H    -0.648542     8.805500    -2.291204
O    -0.525578     9.634816    -1.773827
H     0.236201     9.461386    -1.196193
H     2.076547    -0.922661     5.214569
O     1.504424    -1.448771     5.802149
H     1.596070    -1.101568     6.698882
H     5.218033    -2.058628    -5.681686
O     5.560137    -2.829209    -6.202136
H     5.294542    -3.615060    -5.679337
H     5.704519    -5.227734     4.692999
O     5.184953    -5.140241     5.520506
H     4.461929    -5.771177     5.437982
H    -3.965313     1.137571     7.004160
O    -3.773283     1.615249     7.846993
H    -4.649680     2.000738     8.107173
H    -1.840864     9.595617    -0.760247
O    -2.701259     9.469511    -0.285852
H    -3.312692     10.097178    -0.674657
H    -5.936709     4.666150    -2.947160
O    -6.845020     4.547004    -3.292006
H    -6.754536     3.843216    -3.967639
H     0.110668    -7.090573    -1.131552
O     0.571821    -7.500165    -0.368280
H    -0.114033    -7.719692     0.264780
H    -7.626159     3.768886    -1.981729
O    -7.886849     3.183139    -1.240577
H    -7.744240     2.273766    -1.578732
H     3.982490    -0.900307     6.989733
O     3.991128     0.063834     6.978079
H     4.804050     0.352842     6.547216
H     2.269351     5.776632    -1.186681
O     3.205225     5.484161    -1.072606
H     3.381543     4.942980    -1.864902
H     6.558444    -5.949444     0.688168
O     6.191303    -6.692362     1.208806
H     5.285654    -6.417254     1.435876
H    -3.860250     4.722131     7.772712
O    -3.293107     4.258529     7.114650
H    -3.486732     3.315236     7.226342
H     5.846062    -7.964806     0.204060
O     5.630357    -8.683146    -0.433563
H     4.749970    -8.452590    -0.787540
H    -0.549281     2.034866     7.690397
O    -1.182062     1.969358     6.955029
H    -2.050737     1.827981     7.351384
H    -6.372482    -0.139447     1.060860
O    -6.691773    -0.222532     0.147669
H    -7.609889    -0.495640     0.164817
H    -5.358964    -3.085434    -0.583941
O    -5.107188    -2.379884     0.038700
H    -5.678549    -1.608785    -0.151291
H     4.327492     5.560840     0.313604
O     4.661824     5.662221     1.218563
H     3.967571     6.173361     1.670433
H    -9.031453    -1.767765    -2.253346
O    -8.483839    -1.564598    -1.467565
H    -8.610856    -2.300770    -0.828894
H    -5.511908     3.444203    -5.534381
O    -6.029323     2.734294    -5.118644
H    -5.363236     2.149200    -4.703677
H     3.195237    -0.913979    -5.652980
O     2.338992    -1.036085    -6.117448
H     2.421595    -1.884537    -6.589977
H     8.127988    -1.377065    -6.024181
O     8.136004    -2.240772    -5.566496
H     7.280784    -2.641378    -5.816825
H     7.634986     0.961693    -6.309335
O     7.444810     0.111771    -6.718889
H     6.463357     0.065020    -6.757495
H    -7.849775    -3.709916     0.932677
O    -8.527599    -3.603446     0.247656
H    -8.429030    -4.364047    -0.352869
H    -2.398005     8.720687     1.279308
O    -2.246966     8.133338     2.033220
H    -1.476735     7.580093     1.811259
H    -4.434905     6.422425     3.486062
O    -4.604700     6.846931     2.628717
H    -3.841580     7.433106     2.488720
H     3.412924     3.422804    -3.581677
O     3.259861     4.392011    -3.490432
H     2.294737     4.456668    -3.597199
H    -6.103745    -1.629772    -3.441271
O    -6.185416    -2.206781    -2.655781
H    -6.970731    -1.900575    -2.148565
H     6.478100     1.039895     4.739620
O     6.084033     1.579190     5.441891
H     6.270858     2.497806     5.149718
H     1.374227     1.697155    -5.824684
O     1.180666     1.102614    -5.069030
H     1.541930     0.238738    -5.337290
H    -2.481622     2.961256     10.479035
O    -2.268691     2.053505     10.206815
H    -2.866576     1.852344     9.474978
H     7.638186    -0.511812     3.088260
O     6.887696     0.064336     3.252553
H     6.194737    -0.534265     3.634559
H    -5.647820    -8.074136    -0.689189
O    -4.916389    -8.141592    -0.039520
H    -4.919509    -7.322543     0.478939
H    -5.165631    -0.144094    -4.716389
O    -5.781940    -0.856373    -4.956009
H    -6.620692    -0.415851    -5.154075
H     1.902376    -0.226348    -7.514335
O     1.702180     0.242779    -8.359391
H     2.277733    -0.164197    -9.012154
H     4.886485    -1.426266    -9.301754
O     3.959999    -1.202790    -9.582297
H     3.940041    -1.313649    -10.532256
H     7.575334    -2.580972     4.204171
O     7.721413    -2.621136     3.244511
H     7.226099    -3.412594     2.977668
H     6.729078    -5.916688     2.695846
O     6.794061    -5.233254     3.388332
H     7.667648    -5.318497     3.810968
H    -1.812047     8.935153     3.483083
O    -1.564242     9.241205     4.380912
H    -2.413041     9.374320     4.836258
H    -7.378307     1.541012    -5.254957
O    -7.952550     0.796958    -5.008651
H    -8.854645     1.195900    -4.933609
H     6.940796    -1.112388    -8.400664
O     6.359871    -1.835608    -8.660968
H     6.133583    -2.283043    -7.828240
H    -1.665091     6.212844    -7.032308
O    -2.060875     5.386804    -6.758042
H    -1.814102     5.258556    -5.793643
H     0.008786     3.307428     9.018468
O     0.206258     2.388164     9.275032
H    -0.592217     2.124523     9.781643
H     6.768642    -2.779028    -2.697950
O     6.248231    -3.532296    -2.357049
H     6.718319    -4.332480    -2.621718
H    -4.066085    -3.098957    -4.938630
O    -4.219157    -2.986337    -5.903800
H    -4.768668    -2.194954    -5.960756
H     1.988198     2.180085     8.462632
O     2.652475     2.291005     7.772649
H     3.074293     1.420362     7.659190
H    -6.895666    -5.222265    -1.389268
O    -7.812429    -5.489201    -1.633146
H    -7.945377    -5.090436    -2.517698
H    -3.818811     5.247228     5.688410
O    -3.785743     6.014570     5.096161
H    -2.851975     6.309335     5.190402
H    -7.873287     0.065982    -1.967941
O    -7.383854     0.789424    -2.382415
H    -7.611970     0.776446    -3.335654
H     5.848744     0.114521     0.414607
O     5.627187     0.837292     1.033538
H     6.135874     0.643130     1.847831
H    -6.206814     3.304892     7.389974
O    -6.078892     2.788129     8.219472
H    -6.679026     2.026511     8.132282
H     2.226920    -8.120860    -0.752526
O     2.916399    -8.150953    -1.439128
H     2.615034    -8.878334    -2.038735
H    -2.737353    -3.983349    -6.191989
O    -1.974616    -4.539548    -5.966292
H    -1.704947    -4.258918    -5.063776
H    -5.634733     3.752143     5.302336
O    -6.283864     4.149700     5.918784
H    -6.120821     5.093794     5.903556
H    -0.995512    -7.141693    -3.146083
O    -0.525240    -6.459990    -2.627102
H     0.384925    -6.406786    -3.002405
H     4.453603     2.007168     5.128645
O     3.512242     2.246263     5.007132
H     3.127054     2.264075     5.888673
H     4.117583     4.649958     6.296282
O     4.200575     5.378068     5.676078
H     3.631986     5.137102     4.906053
H     2.773567     3.606210     3.918933
O     2.597343     4.546206     3.751152
H     2.477052     4.643197     2.784713
H     9.408031     0.195289    -1.065095
O     8.596686     0.353602    -0.579366
H     8.423997    -0.461330    -0.079219
H    -2.093669     5.320677     10.642729
O    -2.815553     4.692335     10.874816
H    -3.034511     4.871134     11.789548
H     7.985002    -3.024772     0.337303
O     8.406583    -2.179313     0.590724
H     8.338700    -2.171668     1.553277
H     5.379592     3.653524     3.522193
O     6.036702     3.919838     4.187067
H     5.623763     4.637793     4.688981
H    -4.201597     5.021080     9.776619
O    -4.834229     5.170800     9.053955
H    -5.446262     4.422289     9.052629
H    -6.997781    -3.502934    -3.481217
O    -7.618866    -4.113642    -3.929889
H    -7.097239    -4.559170    -4.629559
H     0.034986     6.129675     10.762058
O    -0.829606     6.460407     10.513955
H    -0.713763     6.889637     9.647023
H     2.600417     1.473398    -4.106197
O     3.480813     1.823038    -3.869721
H     3.798051     1.312095    -3.095400
H    -6.963786    -0.224013     7.219196
O    -7.472169     0.555305     7.497745
H    -8.095816     0.736640     6.793521
H    -2.717020    -9.891964    -0.823646
O    -2.663439    -8.947063    -0.967819
H    -3.572001    -8.590460    -0.731880
H    -10.057151     3.049964    -4.904535
O    -10.173856     2.132812    -4.622710
H    -10.390145     2.217750    -3.673214
H    -2.058218    -3.033729     4.619257
O    -2.933081    -3.473316     4.689672
H    -2.926431    -4.093160     3.934638
H    -0.174066    -7.994680     2.504451
O     0.650318    -7.781218     2.954835
H     1.369465    -8.077263     2.367804
H     6.717359    -2.382457     6.397806
O     7.165330    -3.092830     5.933663
H     6.534948    -3.827665     5.899178
H    -5.263100    -2.008891     6.946737
O    -5.938908    -1.510998     6.461881
H    -5.923038    -1.889982     5.553430
H     0.848754     3.005324    -7.117621
O     1.766397     2.673573    -7.173333
H     1.751567     1.926591    -7.799300
H    -3.946912     8.750899     6.658166
O    -3.943616     8.746920     5.700811
H    -4.069450     7.818988     5.434732
H    -2.048749     10.292621    -2.753979
O    -2.950503     10.473162    -3.056047
H    -2.879374     11.106274    -3.769752
H     9.421138    -4.070351     4.056122
O     9.138982    -4.750448     4.675337
H     8.709688    -4.279928     5.400874
H    -0.746542    -5.998795    -5.850360
O    -0.051012    -6.567182    -5.505803
H     0.787329    -6.125386    -5.721178
H     1.835601     8.259300     0.652348
O     1.532601     8.579374    -0.225933
H     2.347372     8.617123    -0.756162
H     3.511455     2.901126    -6.666103
O     4.338405     2.608413    -6.257013
H     4.092778     2.339916    -5.346623
H     3.743914     7.106000    -1.240171
O     3.950223     8.041228    -1.455066
H     4.318950     7.984093    -2.348434
H     4.407276    -0.035093    -7.910997
O     4.784712     0.108662    -7.041328
H     4.603654     1.041194    -6.797193
H     6.040842     1.916687    -0.476833
O     6.605404     2.106253    -1.240194
H     7.430885     1.629705    -1.044158
H     6.882857    -8.471246    -1.584201
O     7.625076    -8.344594    -2.238038
H     8.278322    -9.001260    -1.984245
H    -5.287583    -5.817878    -5.397157
O    -5.904690    -5.145576    -5.711982
H    -5.353712    -4.378489    -5.951582
H     0.691322     7.169742     7.590185
O    -0.210224     7.197754     7.949489
H    -0.765757     7.210908     7.132024
H    -8.885642    -2.858746    -4.098008
O    -9.405733    -2.049480    -3.932438
H    -9.119696    -1.386561    -4.564590
H    -2.400265    -6.013833    -2.132092
O    -3.273222    -5.717149    -2.406346
H    -3.462016    -6.101879    -3.287911
H    -2.969918    -5.934844    -5.398415
O    -3.570995    -6.538855    -4.923579
H    -3.088094    -7.358915    -4.751106
H    -1.377224     3.699411    -6.987560
O    -0.836487     2.943700    -6.716918
H    -1.075771     2.158036    -7.264780
H    -0.193561     0.386482    -8.216148
O    -1.088914     0.622670    -7.932295
H    -1.264905     0.099912    -7.133901
H    -10.411916     4.031006    -2.742157
O    -10.479477     3.253371    -2.172661
H    -9.650348     3.227685    -1.663467
H     4.589487     4.067147     1.715892
O     4.381533     3.145931     1.994315
H     5.098792     2.570755     1.715507
H     6.497185     1.374018    -4.219784
O     6.195457     0.749459    -3.525082
H     6.223998     1.247139    -2.682138
H     9.644752    -2.241602    -0.919642
O     9.917902    -2.044829    -1.824485
H     9.121992    -1.693658    -2.266070
H     9.974546    -3.365007    -3.081867
O     9.693725    -4.019007    -3.749876
H     9.321107    -3.506212    -4.477997
H    -7.685186    -8.596119    -1.655869
O    -6.949573    -7.999127    -1.784292
H    -7.328840    -7.087496    -1.773751
H     4.171613     6.058066    -3.829530
O     4.832964     6.759190    -3.746130
H     5.669219     6.305852    -3.607313
H     0.142371    -8.217784    -5.186954
O     0.145714    -9.189806    -5.036349
H     0.307767    -9.576199    -5.896129
H    -2.301789    -8.702328    -2.709739
O    -2.073704    -8.428438    -3.616224
H    -1.417495    -9.039386    -3.979265
H     2.983312    -9.778941    -3.806606
O     2.160985    -9.944575    -3.319631
H     1.447763    -9.633142    -3.912398
H     6.847685     3.304618    -4.578263
O     6.905051     2.624180    -5.277288
H     6.112381     2.758416    -5.818986
H    -3.556272    -3.726495     7.727022
O    -3.668482    -2.938965     7.196100
H    -3.417953    -3.180049     6.278005
H    -0.628119    -3.389719    -6.715496
O     0.006567    -2.660761    -6.726141
H    -0.474837    -1.883382    -6.387928
H     0.650740     0.458899     8.752785
O     0.658423    -0.256626     8.113038
H    -0.263795    -0.546041     8.026184
H    -5.823486     7.344064    -4.264154
O    -6.325701     6.723981    -4.824398
H    -6.613274     5.994220    -4.231936
H    -4.268307     9.081389    -3.278353
O    -4.803460     8.285009    -3.171255
H    -4.395596     7.807062    -2.431067
H    -9.700908     5.772146    -4.656698
O    -10.233913     4.967597    -4.491741
H    -11.114658     5.167451    -4.810832
H     2.778097     6.509703     6.130535
O     1.818016     6.606033     6.227765
H     1.474477     5.692395     6.127515
H     4.813889     8.531167     0.071611
O     5.131624     8.533517     0.992382
H     5.538214     7.669350     1.124948
H     2.773756    -7.033351    -6.320467
O     2.635655    -7.699214    -5.639918
H     3.514058    -8.060360    -5.422235
H     0.386331     8.650350     4.220363
O     1.064369     8.005569     3.993505
H     1.290551     7.514141     4.809119
H     5.246194     4.171088    -3.163190
O     6.207700     4.137868    -3.112241
H     6.416019     3.560394    -2.361270
H    -2.567824    -1.548848     7.576286
O    -2.057847    -0.754776     7.794551
H    -2.683959    -0.128513     8.168188
H    -9.017426     7.913044    -4.160391
O    -8.953839     7.327308    -4.916248
H    -7.996785     7.163204    -5.051007
H     3.477630    -9.031864     1.133889
O     2.841963    -8.355443     1.369123
H     3.354687    -7.569817     1.633762
H     3.594047     8.159002     1.817775
O     2.804165     7.594867     1.930591
H     2.356988     7.832095     2.755853
N     4.719397    -8.815967    -4.243385
H     5.547792    -9.298039    -4.311519
H     4.937397    -8.025769    -3.686901
