603

H     0.207623     3.010187    -0.666867
O     0.731327     2.344557    -1.162844
H     1.669920     2.473529    -0.889449
H    -0.068780    -1.277813     3.074601
O     0.403379    -0.585555     2.581729
H    -0.060193     0.237158     2.822761
H    -2.390453     2.385960    -0.523582
O    -2.176925     1.913455     0.298457
H    -2.194533     0.965970     0.071259
H    -4.648385     0.514475     2.189306
O    -4.966337    -0.418047     2.197579
H    -4.459578    -0.896365     1.533306
H     0.079603    -0.334397     0.956082
O    -0.120683    -0.096540     0.029243
H     0.215248     0.801433    -0.089764
H    -0.249178    -3.585944     3.669971
O    -0.631937    -2.785788     4.067245
H    -0.383899    -2.840604     5.019608
H    -4.876311     2.498538     1.345239
O    -4.234565     2.090276     1.958265
H    -3.393114     2.073200     1.443744
H    -3.244203     3.877486    -2.194004
O    -2.505033     3.281437    -1.965749
H    -2.147687     2.995997    -2.826648
H    -0.105846    -3.826799     0.498100
O     0.235524    -3.013813     0.923894
H    -0.553788    -2.527891     1.232909
H    -2.358712    -1.573480     2.470400
O    -2.173843    -2.035282     1.626490
H    -2.433487    -1.445045     0.900472
H     2.083801    -1.462314    -1.120965
O     2.317969    -1.718468    -0.204973
H     1.529127    -2.147018     0.180398
H    -1.381231     1.794566     1.921066
O    -1.466363     1.394985     2.796794
H    -1.456777     2.105860     3.463218
H     0.221808    -2.721800    -1.573944
O    -0.533759    -2.110227    -1.626938
H    -0.355600    -1.386037    -0.990074
H    -3.421664    -2.953528    -0.392268
O    -2.704598    -3.441747    -0.818086
H    -1.995787    -2.808624    -1.032524
H     2.784520     0.098515     2.928932
O     2.900074    -0.078894     3.889828
H     2.983778     0.815373     4.293211
H    -3.526274     6.354462    -0.517960
O    -3.289139     7.019578    -1.216332
H    -3.148295     7.863349    -0.743476
H     3.913771     0.561571     1.185275
O     2.963814     0.378788     1.302264
H     2.725022    -0.372632     0.722276
H    -5.772743     0.816960    -1.592765
O    -4.862639     1.145807    -1.467943
H    -4.974157     1.972248    -0.953340
H    -1.205188     5.366018     2.230642
O    -1.828806     4.618227     2.112004
H    -1.906502     4.197018     2.973300
H     3.501226     2.742044     0.432969
O     3.253935     2.702644    -0.506293
H     3.585960     1.861065    -0.859705
H     1.505313    -4.711890    -2.262655
O     1.570948    -3.936842    -1.686757
H     2.363600    -3.473136    -2.038404
H    -0.913055    -0.102005    -2.544916
O    -0.279574     0.551968    -2.867507
H    -0.019864     1.132549    -2.128996
H     1.716078    -4.706494    -0.190350
O     1.826764    -5.346528     0.549234
H     1.361138    -6.156021     0.251865
H    -1.215099    -3.282063    -2.885493
O    -1.039701    -3.963107    -3.548231
H    -0.913383    -4.811240    -3.081480
H    -2.768385     3.267099     4.720331
O    -1.786887     3.267018     4.686558
H    -1.494222     2.859272     5.520439
H     0.970571     5.000159     4.092649
O     0.024521     5.231280     4.146721
H    -0.447245     4.427075     4.402380
H    -1.712248    -4.673787    -0.380561
O    -0.946039    -5.215740    -0.100094
H    -1.294018    -5.902386     0.478269
H    -3.916341     5.812223    -2.574185
O    -4.266361     4.978664    -2.906026
H    -4.112622     4.946815    -3.874479
H    -2.412323    -3.724569     1.929399
O    -2.425643    -4.639795     2.277777
H    -1.488257    -4.865427     2.441725
H    -4.683735    -2.999554    -2.899960
O    -3.831693    -3.230428    -3.308224
H    -3.499359    -4.024576    -2.844766
H     0.351247     1.337697     4.622351
O     0.860792     2.097805     4.292522
H     0.902899     2.758364     4.998156
H    -4.639643    -5.194201    -1.578146
O    -5.341622    -4.843236    -1.003315
H    -5.127427    -5.199375    -0.119820
H     2.341375    -6.490244    -4.058728
O     2.005791    -6.164170    -3.203673
H     2.440683    -6.739971    -2.542702
H     0.477814    -3.389888    -4.012969
O     1.279810    -3.021051    -4.436156
H     0.958536    -2.647250    -5.283012
H     2.033145    -1.793577     2.945951
O     2.124459    -2.750194     2.807888
H     1.507580    -2.933855     2.068707
H    -3.005260    -1.826427    -3.209236
O    -2.583611    -0.939649    -3.143340
H    -3.240807    -0.293890    -3.459160
H    -3.184611     4.945313     1.100618
O    -3.966733     5.319983     0.647939
H    -4.382184     5.874636     1.356395
H     0.886981     2.223703     2.599810
O     0.988329     2.223901     1.628727
H     1.713702     1.599725     1.461358
H     0.193325     5.636131    -0.739254
O     0.714133     6.300151    -1.246331
H     0.855160     7.098554    -0.688415
H     0.348369     7.005854     2.613962
O    -0.013958     6.627410     1.795781
H     0.650344     5.958189     1.531708
H    -2.451928     0.247614     3.328440
O    -2.704391    -0.576340     3.806699
H    -1.944414    -0.634891     4.423545
H    -0.856477     0.596333     6.020974
O    -0.582572     0.055720     5.253557
H     0.207197    -0.460154     5.552328
H     0.711305    -5.122816     1.892521
O     0.203662    -5.188236     2.727616
H     0.304711    -6.125008     2.977949
H    -2.097771    -8.115072     0.430067
O    -1.773208    -7.630442     1.216358
H    -2.558600    -7.319640     1.674418
H    -0.379565     6.847143    -2.301954
O    -1.127039     7.267861    -2.798846
H    -1.916271     7.138653    -2.234717
H    -1.107345     4.283429     0.590444
O    -0.735273     4.348029    -0.305763
H    -1.442238     4.106729    -0.938136
H    -4.398140     2.708059     3.523924
O    -4.394834     2.875460     4.488945
H    -4.477098     1.990661     4.895257
H     1.974715    -3.626059     4.423324
O     2.090621    -4.107199     5.269312
H     2.776881    -3.575230     5.734578
H     4.701103    -3.214347     0.828013
O     4.541533    -3.136587    -0.137904
H     3.681460    -2.660345    -0.220722
H    -2.712587    -0.770468    -1.349027
O    -3.038239    -0.501951    -0.473641
H    -3.840959     0.021536    -0.677297
H    -1.610540    -0.772200    -4.629468
O    -1.104098    -0.553402    -5.433108
H    -0.395106     0.043253    -5.146404
H     1.803905    -1.726007    -3.380935
O     1.896577    -0.981209    -2.755473
H     1.118025    -0.404825    -2.883555
H     3.665985    -3.156641     2.556083
O     4.626981    -3.375080     2.469322
H     4.693032    -4.335592     2.588138
H     3.443566    -6.142626     3.104551
O     3.800825    -5.946949     2.206015
H     3.063782    -5.601110     1.661057
H    -3.339863     1.596616    -4.166288
O    -4.183986     1.124522    -3.976398
H    -4.400838     1.266561    -3.018860
H    -5.077026     4.118762     0.086795
O    -5.514214     3.252435    -0.019024
H    -6.445395     3.370827    -0.298499
H     6.744291    -1.193890    -1.372344
O     5.973782    -1.047183    -0.817280
H     5.555182    -1.915801    -0.623264
H     4.605873    -3.180037    -2.482782
O     3.737281    -3.008426    -2.896814
H     3.739785    -3.624779    -3.654958
H     4.602389    -2.347785     5.583884
O     4.297461    -2.856506     6.375316
H     4.665319    -3.748655     6.221887
H    -0.745357     6.298846     5.097534
O    -1.341314     6.872576     5.638491
H    -1.357088     7.750717     5.199262
H     4.707435    -0.150749    -1.469812
O     3.939185     0.391593    -1.729522
H     3.246667    -0.208492    -2.060881
H    -0.741846     4.511408    -4.020308
O    -1.525226     5.054260    -4.226195
H    -1.374613     5.919767    -3.801077
H     0.663196     3.189210    -2.646797
O     0.669649     3.568713    -3.554226
H     0.716425     2.806938    -4.141952
H    -5.366253    -5.226858     1.788004
O    -4.671330    -5.821387     1.428072
H    -3.829002    -5.406255     1.693872
H     7.888917    -1.693468    -4.045481
O     7.631851    -1.383130    -3.144484
H     7.143947    -0.539245    -3.298255
H     3.710971    -5.075490    -5.306994
O     4.473993    -4.703207    -4.825690
H     4.859448    -5.415721    -4.282752
H    -3.765871    -0.024105     4.944450
O    -4.368250     0.438179     5.577159
H    -5.023596    -0.224253     5.870076
H     3.480104    -5.960341    -0.540498
O     4.354245    -5.712183    -0.853971
H     4.428151    -4.749666    -0.710686
H     5.006285    -0.341500    -4.164876
O     4.471788    -1.052666    -4.556146
H     4.146605    -1.638139    -3.839642
H    -1.168394     1.558725    -3.928026
O    -1.819660     2.180121    -4.311008
H    -1.463695     2.514369    -5.156898
H     4.900074    -6.333594    -2.336090
O     5.232283    -6.655324    -3.203113
H     6.050972    -7.136096    -3.019273
H     8.753014    -5.097198    -2.940783
O     8.063474    -5.517412    -2.382038
H     8.098509    -6.474309    -2.487954
H     2.343495     4.698099     0.464935
O     1.766493     4.677045     1.237698
H     1.409358     3.756221     1.312615
H    -4.423163    -2.684278     4.221991
O    -5.315554    -2.323521     4.025920
H    -5.164573    -1.544187     3.454239
H    -5.830386    -3.229471     1.318886
O    -6.291480    -3.789083     1.985526
H    -6.104030    -3.352708     2.837297
H     1.699602     3.430331     6.873164
O     1.075616     3.945040     6.341026
H     0.292503     4.095696     6.913808
H     5.015563    -2.198601     3.607447
O     5.036541    -1.484937     4.276954
H     4.226953    -0.923908     4.117654
H     2.409511    -5.714085     4.837306
O     2.802813    -6.579217     4.563597
H     2.076889    -7.162560     4.319684
H     2.263994    -4.517539    -6.803627
O     2.097333    -5.008207    -5.988876
H     1.831742    -4.319158    -5.331401
H     6.454233    -4.118215    -0.521132
O     7.207910    -4.521931    -0.058939
H     7.715275    -4.941791    -0.781531
H    -1.710695     4.440381     7.719898
O    -0.810590     4.538989     8.103571
H    -0.632253     5.498533     8.131025
H    -5.121761     5.680884    -5.571144
O    -4.513043     4.918351    -5.594373
H    -3.756915     5.135268    -6.160835
H     3.284008    -2.523004    -8.445774
O     3.198159    -3.057982    -7.645812
H     4.075251    -3.033879    -7.218091
H    -0.663070     8.809554    -2.249571
O    -0.540137     9.636891    -1.728824
H     0.222916     9.461729    -1.153396
H     2.143223    -0.711099     5.221553
O     1.639575    -1.162389     5.927096
H     1.784007    -0.651328     6.738400
H     5.211202    -2.025666    -5.702777
O     5.558120    -2.790052    -6.227078
H     5.285210    -3.581799    -5.711792
H     5.718884    -5.245858     4.664998
O     5.196942    -5.164254     5.493036
H     4.475639    -5.796419     5.407307
H    -3.955430     1.100196     7.018825
O    -3.765922     1.579916     7.861351
H    -4.643575     1.959131     8.123798
H    -1.853378     9.591835    -0.713365
O    -2.712857     9.463194    -0.237867
H    -3.325566     10.091580    -0.623483
H    -5.947547     4.668009    -2.915305
O    -6.856321     4.549287    -3.259239
H    -6.765931     3.848493    -3.937996
H     0.111526    -7.084272    -1.160588
O     0.577211    -7.521730    -0.414558
H    -0.101790    -7.719330     0.233800
H    -7.634522     3.764904    -1.951105
O    -7.894277     3.175887    -1.212205
H    -7.750529     2.268083    -1.553976
H     4.002632    -0.931809     6.978918
O     4.004016     0.032323     6.977437
H     4.811722     0.331383     6.543000
H     2.260055     5.778994    -1.163219
O     3.196223     5.487110    -1.051107
H     3.372236     4.949506    -1.846182
H     6.568767    -5.947523     0.649494
O     6.202346    -6.684370     1.184346
H     5.296365    -6.410708     1.408642
H    -3.853841     4.679527     7.801658
O    -3.286160     4.219725     7.141712
H    -3.479318     3.275290     7.249092
H     5.781544    -7.963187     0.110865
O     5.493496    -8.648887    -0.527531
H     4.663294    -8.323650    -0.920146
H    -0.542453     2.000389     7.703313
O    -1.170175     1.926498     6.965582
H    -2.039714     1.786236     7.360917
H    -6.370244    -0.155514     1.071792
O    -6.693577    -0.234838     0.159289
H    -7.611338    -0.508555     0.179648
H    -5.359790    -3.091277    -0.587480
O    -5.106010    -2.389559     0.038044
H    -5.678508    -1.617614    -0.145157
H     4.321274     5.558585     0.333156
O     4.656111     5.656657     1.238356
H     3.961757     6.165475     1.692629
H    -9.035332    -1.772141    -2.243960
O    -8.486211    -1.572091    -1.458592
H    -8.611588    -2.310384    -0.822234
H    -5.525635     3.457351    -5.508309
O    -6.041681     2.745049    -5.094885
H    -5.374060     2.159092    -4.683436
H     3.184017    -0.892335    -5.659146
O     2.327726    -1.011979    -6.124235
H     2.413277    -1.859711    -6.599889
H     8.118144    -1.347210    -6.040329
O     8.127887    -2.212364    -5.586033
H     7.271840    -2.612598    -5.836945
H     7.621137     0.993557    -6.314365
O     7.432840     0.145921    -6.729257
H     6.451467     0.094988    -6.764778
H    -7.845595    -3.726116     0.933173
O    -8.524631    -3.618485     0.249237
H    -8.426483    -4.376839    -0.353622
H    -2.406495     8.707639     1.323367
O    -2.253485     8.117472     2.074686
H    -1.483303     7.565677     1.848899
H    -4.437614     6.397729     3.523467
O    -4.609212     6.826167     2.668448
H    -3.846679     7.413365     2.529621
H     3.401966     3.437082    -3.569400
O     3.247758     4.405891    -3.472951
H     2.282600     4.469608    -3.579236
H    -6.109038    -1.625386    -3.436352
O    -6.190043    -2.207245    -2.654258
H    -6.973475    -1.902589    -2.143074
H     6.481985     1.020719     4.737384
O     6.087424     1.555351     5.443289
H     6.273280     2.475739     5.154871
H     1.361877     1.716906    -5.816871
O     1.169535     1.118967    -5.063727
H     1.532825     0.256786    -5.336534
H    -2.468855     2.907067     10.498666
O    -2.255137     2.001185     10.220844
H    -2.854727     1.804564     9.488770
H     7.641665    -0.520633     3.074577
O     6.890560     0.052097     3.248429
H     6.200409    -0.550766     3.625559
H    -5.641366    -8.081304    -0.713418
O    -4.905202    -8.150927    -0.068629
H    -4.909813    -7.335331     0.456315
H    -5.173911    -0.134032    -4.706338
O    -5.790137    -0.845856    -4.948066
H    -6.629332    -0.404831    -5.143117
H     1.889785    -0.198565    -7.515301
O     1.686930     0.275483    -8.357645
H     2.262942    -0.127639    -9.012614
H     4.871264    -1.385290    -9.311498
O     3.945512    -1.156674    -9.591794
H     3.924098    -1.271900    -10.541132
H     7.582917    -2.597095     4.185023
O     7.726311    -2.630581     3.225115
H     7.234798    -3.421996     2.951971
H     6.738708    -5.917658     2.663149
O     6.800294    -5.245718     3.368138
H     7.678333    -5.330107     3.781966
H    -1.817363     8.913193     3.527133
O    -1.568668     9.215659     4.425989
H    -2.417009     9.345789     4.883050
H    -7.389366     1.551304    -5.234018
O    -7.962927     0.805657    -4.990712
H    -8.865014     1.203857    -4.912110
H     6.925913    -1.075257    -8.413459
O     6.344645    -1.796427    -8.678269
H     6.118265    -2.248730    -7.847240
H    -1.683330     6.236231    -7.000240
O    -2.079615     5.409548    -6.728657
H    -1.830094     5.276373    -5.765618
H     0.020283     3.261188     9.035764
O     0.218409     2.340606     9.287644
H    -0.580853     2.076273     9.793565
H     6.765110    -2.787915    -2.718547
O     6.236727    -3.533732    -2.377547
H     6.705051    -4.343286    -2.628491
H    -4.071228    -3.086715    -4.943752
O    -4.226249    -2.971494    -5.908206
H    -4.775025    -2.179261    -5.961405
H     1.994626     2.138389     8.473913
O     2.655657     2.250939     7.780848
H     3.088224     1.386488     7.666301
H    -6.894501    -5.228046    -1.397530
O    -7.809839    -5.498563    -1.643266
H    -7.945159    -5.093328    -2.524612
H    -3.816857     5.213295     5.719715
O    -3.785658     5.983708     5.131271
H    -2.852008     6.278669     5.224984
H    -7.878131     0.062086    -1.952249
O    -7.390248     0.787501    -2.364994
H    -7.619793     0.778215    -3.317834
H     5.847482     0.112826     0.407039
O     5.625755     0.832274     1.030456
H     6.137187     0.636131     1.841876
H    -6.201895     3.261543     7.415470
O    -6.073362     2.742475     8.243362
H    -6.670648     1.978994     8.153336
H     2.293450    -8.091645    -0.865554
O     2.971669    -8.077120    -1.560661
H     2.746852    -8.788992    -2.176461
H    -2.738979    -3.970470    -6.201136
O    -1.983864    -4.535985    -5.972197
H    -1.707258    -4.246803    -5.074330
H    -5.631772     3.717793     5.330278
O    -6.280719     4.112899     5.948683
H    -6.117980     5.057085     5.937357
H    -1.005704    -7.129817    -3.177412
O    -0.532477    -6.461146    -2.648458
H     0.373684    -6.389298    -3.031335
H     4.459335     1.987236     5.131357
O     3.516894     2.224272     5.013832
H     3.133059     2.241736     5.895605
H     4.121072     4.623212     6.311589
O     4.201733     5.354218     5.694637
H     3.632626     5.115772     4.923967
H     2.774359     3.587673     3.930976
O     2.596902     4.528250     3.768969
H     2.474810     4.629900     2.802979
H     9.400992     0.201863    -1.080140
O     8.596142     0.362546    -0.583917
H     8.421411    -0.458479    -0.094208
H    -2.084246     5.267147     10.671686
O    -2.804058     4.636145     10.902669
H    -3.023344     4.812252     11.817815
H     7.986068    -3.024579     0.311420
O     8.406620    -2.178245     0.568641
H     8.342388    -2.175825     1.530930
H     5.381375     3.638951     3.530717
O     6.036541     3.900331     4.199924
H     5.624917     4.619131     4.701540
H    -4.193775     4.968149     9.807630
O    -4.827537     5.121430     9.086860
H    -5.438835     4.372280     9.082023
H    -7.002385    -3.498711    -3.482344
O    -7.622809    -4.109710    -3.932120
H    -7.102100    -4.549439    -4.635927
H     0.044270     6.078867     10.790707
O    -0.821347     6.409189     10.545753
H    -0.707949     6.842228     9.680344
H     2.591438     1.487280    -4.101658
O     3.470041     1.839912    -3.863164
H     3.791319     1.323403    -3.094184
H    -6.950716    -0.270120     7.234002
O    -7.460368     0.507277     7.515250
H    -8.085802     0.689620     6.812855
H    -2.724518    -9.896396    -0.849313
O    -2.662166    -8.954397    -1.007290
H    -3.568149    -8.589120    -0.763826
H    -10.069303     3.056231    -4.873023
O    -10.185096     2.137852    -4.594821
H    -10.399530     2.218884    -3.644517
H    -2.241002    -3.189405     4.411561
O    -3.093142    -3.647327     4.619021
H    -3.135333    -4.301584     3.899071
H    -0.156999    -8.011086     2.471419
O     0.670857    -7.798854     2.916022
H     1.386966    -8.095452     2.327033
H     6.729134    -2.406124     6.380623
O     7.179051    -3.113001     5.913215
H     6.553091    -3.850654     5.872749
H    -5.240869    -2.060829     6.954312
O    -5.912533    -1.558034     6.474999
H    -5.904089    -1.930193     5.561928
H     0.832813     3.030277    -7.104164
O     1.750817     2.700745    -7.162651
H     1.736742     1.954769    -7.790301
H    -3.947309     8.712636     6.704978
O    -3.945400     8.713128     5.747615
H    -4.070653     7.786257     5.477465
H    -2.065303     10.297137    -2.703740
O    -2.967646     10.478625    -3.003525
H    -2.897847     11.114179    -3.715193
H     9.431103    -4.085894     4.022426
O     9.150560    -4.764643     4.643981
H     8.725445    -4.292721     5.370828
H    -0.726919    -6.004833    -5.851886
O    -0.022153    -6.571470    -5.521251
H     0.812396    -6.108386    -5.738989
H     1.826551     8.253402     0.687300
O     1.521899     8.577427    -0.188876
H     2.335666     8.617503    -0.720555
H     3.495498     2.928754    -6.656066
O     4.324068     2.638490    -6.248693
H     4.080277     2.362214    -5.340201
H     3.732956     7.110018    -1.212905
O     3.937927     8.046489    -1.423962
H     4.305531     7.993167    -2.318116
H     4.393638    -0.004167    -7.914318
O     4.772171     0.140436    -7.045234
H     4.589413     1.071484    -6.798988
H     6.036811     1.918906    -0.475848
O     6.601381     2.114401    -1.237494
H     7.426577     1.634985    -1.045801
H     6.700489    -8.442845    -1.634912
O     7.335526    -8.229101    -2.371164
H     7.702379    -9.062013    -2.662749
H    -5.293316    -5.801568    -5.412251
O    -5.911390    -5.129567    -5.725194
H    -5.361332    -4.360026    -5.960093
H     0.693701     7.132748     7.622748
O    -0.207184     7.157323     7.983886
H    -0.764142     7.173703     7.167306
H    -8.890761    -2.854083    -4.094252
O    -9.412149    -2.046606    -3.924608
H    -9.127124    -1.379820    -4.553169
H    -2.397627    -6.007419    -2.151819
O    -3.275806    -5.720774    -2.419763
H    -3.463964    -6.093918    -3.305787
H    -2.978183    -5.910771    -5.417922
O    -3.576760    -6.522583    -4.946803
H    -3.093716    -7.342624    -4.782419
H    -1.394693     3.721861    -6.967707
O    -0.852919     2.966070    -6.699917
H    -1.090248     2.182016    -7.251210
H    -0.206695     0.416873    -8.211239
O    -1.102465     0.650639    -7.925866
H    -1.276136     0.124704    -7.129099
H    -10.421757     4.027742    -2.705669
O    -10.487822     3.247479    -2.139615
H    -9.657681     3.220190    -1.631993
H     4.586622     4.059096     1.728439
O     4.382175     3.137160     2.007117
H     5.096925     2.563142     1.719352
H     6.487485     1.393889    -4.221741
O     6.186630     0.767593    -3.528684
H     6.217616     1.261379    -2.683963
H     9.643339    -2.235540    -0.945788
O     9.918481    -2.018091    -1.845228
H     9.116987    -1.679559    -2.286859
H     9.977949    -3.324343    -3.118243
O     9.710257    -3.975179    -3.794028
H     9.315179    -3.466337    -4.512699
H    -7.682466    -8.600043    -1.673601
O    -6.945447    -8.004980    -1.803401
H    -7.323789    -7.092179    -1.789956
H     4.157779     6.073746    -3.807363
O     4.818294     6.775433    -3.721397
H     5.655203     6.322005    -3.586584
H     0.108592    -8.178632    -5.233751
O     0.134548    -9.161825    -5.104461
H     0.283270    -9.523144    -5.978338
H    -2.318693    -8.690499    -2.731977
O    -2.085427    -8.424213    -3.641071
H    -1.439152    -9.041719    -4.001927
H     2.199571    -10.826852    -3.523485
O     2.153108    -9.872371    -3.497061
H     1.366503    -9.601046    -4.021386
H     6.834831     3.328013    -4.572216
O     6.892803     2.651417    -5.274626
H     6.098483     2.785031    -5.814022
H    -3.552037    -3.589139     7.819100
O    -3.638145    -2.911901     7.147076
H    -3.434711    -3.351100     6.286267
H    -0.634338    -3.366992    -6.728921
O    -0.004667    -2.634995    -6.735502
H    -0.486797    -1.860908    -6.391172
H     0.654658     0.501308     8.955140
O     0.604388    -0.285008     8.398823
H    -0.355927    -0.432240     8.289084
H    -5.839243     7.351580    -4.220510
O    -6.342108     6.733710    -4.782627
H    -6.627393     6.000705    -4.193057
H    -4.284244     9.086091    -3.229824
O    -4.818826     8.289028    -3.125009
H    -4.408944     7.807923    -2.387950
H    -9.715292     5.777713    -4.613977
O    -10.247449     4.972007    -4.451784
H    -11.128853     5.172644    -4.768512
H     2.779191     6.481702     6.156245
O     1.819316     6.576629     6.256656
H     1.475800     5.663670     6.151294
H     4.803223     8.530907     0.103060
O     5.122327     8.529678     1.023439
H     5.530284     7.665440     1.151313
H     4.154270    -7.432183    -4.364682
O     3.395964    -7.716283    -4.906849
H     3.116687    -8.558455    -4.532651
H     0.381890     8.627658     4.259473
O     1.060657     7.984881     4.029109
H     1.288210     7.490094     4.842183
H     5.235274     4.183800    -3.151036
O     6.196858     4.154686    -3.099670
H     6.407410     3.571635    -2.353608
H    -2.600076    -1.488585     7.579211
O    -2.117739    -0.691571     7.879792
H    -2.789700    -0.115009     8.262078
H    -9.033415     7.916892    -4.109344
O    -8.970493     7.334732    -4.868016
H    -8.013407     7.171906    -5.004703
H     3.550343    -9.001529     1.062833
O     2.874273    -8.371628     1.318024
H     3.348502    -7.565965     1.596621
H     3.586822     8.149899     1.849290
O     2.797766     7.584449     1.961634
H     2.351685     7.818160     2.788423
N    -0.183361    -3.385855     6.682897
H     0.682367    -3.723913     6.372818
H     0.062793    -2.606402     7.192964
