39
Coordinates from ORCA-job grain_mol_opt.QMRegion
  H   -3.00282595955143     -1.83806290160250     -3.18007379584371
  O   -2.56173664437152     -0.95585211414761     -3.14531606617922
  H   -3.23934809834583     -0.30582470150149     -3.42017504542051
  H   -1.54779973278290     -0.81693228911790     -4.66118386261725
  O   -0.98989291162957     -0.55987144204723     -5.42412838729873
  H   -0.26324248134416     -0.04140955210900     -5.04753445279396
  H   -3.32279461466130      1.59098116016394     -4.14475430041737
  O   -4.18787792279194      1.14590732662681     -3.93795867484577
  H   -4.37774373764460      1.30406318114818     -2.97585268788629
  H   -1.11555297986311      1.59001247107723     -3.90914560527719
  O   -1.79587676583649      2.19054379834357     -4.27400970837079
  H   -1.47151350763262      2.53527344131753     -5.13271009971923
  H   -5.13017676078848      5.80025573996260     -5.55690838609906
  O   -4.51848936093256      5.03629880549421     -5.63543561958913
  H   -3.75204253672077      5.32301377622916     -6.16061348256242
  H   -5.50081588723789      3.52302827800299     -5.60585451386356
  O   -6.01349837101068      2.81166461336536     -5.17261889717552
  H   -5.33472481769530      2.29417693444464     -4.68750170084154
  H   -5.19918931427905     -0.10219977078422     -4.70592104285711
  O   -5.79656068185803     -0.82106498514541     -4.98976693827711
  H   -6.65906681898339     -0.38605699081099     -5.12422994231389
  H   -7.40209708898724      1.67580594078770     -5.25438919064379
  O   -7.96316501679052      0.90619140643062     -5.03071361597469
  H   -8.87442463475193      1.28593233449490     -4.92730087659453
  H   -1.62926898515470      6.29749064201049     -6.96793738246641
  O   -2.00923256329294      5.45383014302457     -6.70644349742277
  H   -1.76509602583828      5.34900388875588     -5.73540934999030
  H   -4.07703523974421     -3.11021595215230     -4.92083672158515
  O   -4.19860502797803     -3.00239534501937     -5.89375000308044
  H   -4.73344423924233     -2.19745645620671     -5.95502418877816
  H   -1.22409327724741      3.79590918742122     -7.01907765299848
  O   -0.76587952477760      3.00409113623219     -6.69209942383498
  H   -0.98396663367861      2.23040319642616     -7.26608566397524
  H   -0.10702836107380      0.42286857095284     -8.24668065313382
  O   -1.00143355701789      0.62504257480267     -7.91918155244925
  H   -1.07347019405836      0.13305605014070     -7.07467832164977
  O   -3.70672535717357      1.48026112823108     -7.09737440557242
  H   -4.59502118521846      1.29630470758732     -7.41503713824868
  H   -3.11888637552038      1.07335680854056     -7.74544574321406
