603

H     0.204090     3.023812    -0.678140
O     0.728619     2.356127    -1.170341
H     1.667201     2.487966    -0.897143
H    -0.058464    -1.307626     3.160589
O     0.330423    -0.607098     2.614299
H    -0.149119     0.205444     2.846740
H    -2.393711     2.395918    -0.533634
O    -2.182056     1.927762     0.291441
H    -2.193748     0.979457     0.068424
H    -4.651804     0.531699     2.189645
O    -4.966591    -0.402607     2.203739
H    -4.458117    -0.879715     1.539750
H     0.077275    -0.313354     0.958780
O    -0.122670    -0.078262     0.031960
H     0.215989     0.818346    -0.090666
H    -0.131385    -3.577012     3.791335
O    -0.412148    -2.746712     4.210704
H     0.234152    -2.573686     4.911719
H    -4.881003     2.512831     1.333278
O    -4.240602     2.105681     1.948628
H    -3.397740     2.089546     1.435843
H    -3.248838     3.877709    -2.212145
O    -2.509731     3.283035    -1.980215
H    -2.150363     2.994782    -2.839381
H    -0.101755    -3.811756     0.518527
O     0.235985    -2.991111     0.933403
H    -0.552426    -2.507054     1.245372
H    -2.360135    -1.546840     2.480407
O    -2.172300    -2.014376     1.640147
H    -2.429686    -1.428136     0.909693
H     2.088397    -1.446716    -1.112104
O     2.320975    -1.696182    -0.194054
H     1.533638    -2.126545     0.190727
H    -1.382703     1.818122     1.915313
O    -1.474615     1.421916     2.791964
H    -1.460742     2.135363     3.455751
H     0.227089    -2.713278    -1.557461
O    -0.530479    -2.103836    -1.612839
H    -0.352365    -1.375698    -0.980613
H    -3.416066    -2.939893    -0.376277
O    -2.701513    -3.432957    -0.800108
H    -1.989754    -2.803403    -1.017137
H     2.784997     0.135995     2.938805
O     2.884765    -0.044112     3.900886
H     2.973924     0.849763     4.303659
H    -3.536248     6.362549    -0.548210
O    -3.300221     7.024387    -1.249881
H    -3.160458     7.870832    -0.781364
H     3.912294     0.590603     1.189867
O     2.962207     0.406737     1.306418
H     2.727014    -0.347851     0.728930
H    -5.772641     0.817021    -1.598045
O    -4.863057     1.146798    -1.472490
H    -4.975871     1.976125    -0.962707
H    -1.214875     5.391733     2.206047
O    -1.837799     4.642559     2.091275
H    -1.913670     4.225310     2.954654
H     3.497298     2.766967     0.424778
O     3.248924     2.721727    -0.514157
H     3.583940     1.879459    -0.863225
H     1.515886    -4.704668    -2.234465
O     1.577243    -3.924473    -1.664889
H     2.370975    -3.462620    -2.016691
H    -0.910248    -0.099815    -2.540359
O    -0.279379     0.554541    -2.866910
H    -0.019437     1.138951    -2.131415
H     1.724056    -4.688010    -0.163119
O     1.833933    -5.322569     0.580702
H     1.372165    -6.136081     0.287008
H    -1.204705    -3.282362    -2.865032
O    -1.033301    -3.965970    -3.526046
H    -0.900601    -4.812388    -3.057106
H    -2.776603     3.304128     4.705556
O    -1.795453     3.304098     4.671011
H    -1.500956     2.904723     5.507832
H     0.960628     5.039222     4.071702
O     0.013866     5.268710     4.123994
H    -0.455421     4.464541     4.383635
H    -1.706269    -4.664503    -0.354174
O    -0.936506    -5.197126    -0.069626
H    -1.276142    -5.887446     0.511509
H    -3.924003     5.809247    -2.601952
O    -4.272722     4.973636    -2.930106
H    -4.117704     4.937289    -3.898213
H    -2.408207    -3.699383     1.950391
O    -2.426686    -4.602171     2.329032
H    -1.486373    -4.841428     2.466199
H    -4.676144    -3.006589    -2.884309
O    -3.824140    -3.239923    -3.290921
H    -3.488682    -4.028483    -2.821165
H     0.348911     1.380509     4.618556
O     0.851650     2.141851     4.282718
H     0.899766     2.802009     4.988507
H    -4.624309    -5.193400    -1.549287
O    -5.332202    -4.848063    -0.978057
H    -5.113598    -5.191481    -0.091580
H     2.354524    -6.491035    -4.019694
O     2.016153    -6.161151    -3.167042
H     2.451628    -6.733173    -2.502584
H     0.486151    -3.392696    -3.992640
O     1.287239    -3.023508    -4.416700
H     0.966634    -2.655016    -5.266014
H     1.981541    -1.748048     2.990492
O     2.139463    -2.678889     2.775270
H     1.454103    -2.896538     2.108991
H    -2.999212    -1.831248    -3.198807
O    -2.580572    -0.943375    -3.135277
H    -3.237778    -0.300158    -3.456288
H    -3.192902     4.962237     1.077437
O    -3.976087     5.332290     0.622653
H    -4.392340     5.890535     1.327909
H     0.882185     2.254707     2.592395
O     0.982422     2.248347     1.621132
H     1.711295     1.627065     1.457828
H     0.185061     5.649496    -0.763429
O     0.704259     6.311942    -1.273985
H     0.844497     7.113215    -0.719860
H     0.335386     7.035746     2.582838
O    -0.026229     6.652555     1.766493
H     0.639625     5.983404     1.505956
H    -2.467710     0.208544     3.348175
O    -2.687357    -0.605001     3.854899
H    -1.926033    -0.641296     4.476024
H    -0.881309     0.556661     6.031019
O    -0.606760     0.036516     5.257297
H     0.109117    -0.564258     5.544360
H     0.734087    -4.995180     1.996284
O     0.192253    -5.104301     2.801021
H     0.338757    -6.025209     3.072418
H    -2.121373    -7.997467     0.512540
O    -1.725474    -7.535350     1.282133
H    -2.454359    -7.196505     1.805374
H    -0.389047     6.851679    -2.332765
O    -1.137062     7.268409    -2.832453
H    -1.926270     7.140864    -2.268066
H    -1.114390     4.301118     0.572087
O    -0.742290     4.361591    -0.324381
H    -1.448431     4.116137    -0.955862
H    -4.404281     2.735422     3.509780
O    -4.403304     2.907782     4.474003
H    -4.483420     2.025338     4.884946
H     2.047451    -3.575318     4.256667
O     1.984731    -4.045002     5.111323
H     2.491651    -3.506142     5.740097
H     4.708787    -3.186507     0.849748
O     4.547921    -3.112473    -0.116871
H     3.687258    -2.638592    -0.200672
H    -2.709588    -0.765567    -1.342305
O    -3.038882    -0.495458    -0.468635
H    -3.839534     0.029483    -0.676942
H    -1.604915    -0.781177    -4.622485
O    -1.099796    -0.565100    -5.427407
H    -0.391138     0.033733    -5.144016
H     1.809565    -1.723345    -3.368001
O     1.899830    -0.974582    -2.746909
H     1.120748    -0.400219    -2.878954
H     3.684600    -3.113357     2.561188
O     4.644270    -3.339566     2.488317
H     4.700942    -4.299678     2.616004
H     3.456677    -6.112121     3.139990
O     3.812047    -5.909824     2.240001
H     3.072331    -5.570344     1.696025
H    -3.339049     1.586192    -4.173544
O    -4.182762     1.113694    -3.981331
H    -4.399866     1.261107    -3.024901
H    -5.082762     4.126767     0.067131
O    -5.519299     3.259376    -0.034369
H    -6.450050     3.375852    -0.315891
H     6.747955    -1.172921    -1.357340
O     5.975389    -1.023901    -0.805813
H     5.558978    -1.892465    -0.605841
H     4.612679    -3.167678    -2.460130
O     3.744395    -2.999350    -2.876509
H     3.749195    -3.620351    -3.630871
H     4.455549    -2.276908     5.630095
O     4.114610    -2.741515     6.424625
H     4.451606    -3.645971     6.344296
H    -0.758384     6.339427     5.069054
O    -1.356525     6.914680     5.606230
H    -1.372592     7.790796     5.162978
H     4.709370    -0.132845    -1.462289
O     3.940269     0.406825    -1.725959
H     3.249439    -0.196633    -2.054161
H    -0.746576     4.506621    -4.039802
O    -1.530966     5.047032    -4.248493
H    -1.381580     5.915019    -3.827913
H     0.660174     3.193662    -2.658697
O     0.665450     3.568483    -3.568047
H     0.715134     2.803924    -4.151915
H    -5.358194    -5.195568     1.822727
O    -4.666397    -5.802799     1.477390
H    -3.818984    -5.389855     1.732926
H     7.895146    -1.683207    -4.028423
O     7.637104    -1.368710    -3.129306
H     7.147557    -0.526732    -3.287207
H     3.724030    -5.079930    -5.275375
O     4.485572    -4.702748    -4.795890
H     4.872535    -5.411448    -4.248654
H    -3.770296     0.011303     4.943018
O    -4.372593     0.474726     5.574824
H    -5.030475    -0.184729     5.868415
H     3.491702    -5.941413    -0.503213
O     4.363452    -5.691751    -0.821958
H     4.436741    -4.729056    -0.680094
H     5.010098    -0.337428    -4.156275
O     4.476313    -1.050750    -4.544606
H     4.152740    -1.634156    -3.825501
H    -1.168603     1.553957    -3.932814
O    -1.821147     2.171742    -4.319643
H    -1.464682     2.502707    -5.166709
H     4.912113    -6.320461    -2.298788
O     5.246479    -6.644720    -3.164109
H     6.065046    -7.124361    -2.976527
H     8.764038    -5.081007    -2.906696
O     8.074207    -5.499017    -2.346956
H     8.110818    -6.456548    -2.446940
H     2.335993     4.720357     0.446858
O     1.757038     4.702454     1.218252
H     1.402513     3.781227     1.298181
H    -4.394689    -2.645311     4.244990
O    -5.290121    -2.309737     4.041146
H    -5.155453    -1.528171     3.465555
H    -5.826488    -3.215323     1.332455
O    -6.286846    -3.772377     2.003386
H    -6.097388    -3.333925     2.852641
H     1.691424     3.480861     6.860610
O     1.066583     3.993489     6.326128
H     0.283605     4.145568     6.897930
H     5.019625    -2.155082     3.624019
O     5.038557    -1.435010     4.286391
H     4.225021    -0.881625     4.129033
H     2.418174    -5.568168     4.854335
O     2.801622    -6.450733     4.596327
H     2.058782    -7.034979     4.421200
H     2.277341    -4.529483    -6.776614
O     2.109761    -5.016882    -5.960118
H     1.843769    -4.325747    -5.305387
H     6.461435    -4.093566    -0.492149
O     7.216639    -4.492623    -0.028731
H     7.724392    -4.915933    -0.748853
H    -1.722796     4.494832     7.698832
O    -0.824145     4.596310     8.083744
H    -0.645776     5.556013     8.105783
H    -5.127255     5.661042    -5.599314
O    -4.517746     4.899059    -5.618347
H    -3.761227     5.114427    -6.185001
H     3.294920    -2.541925    -8.427637
O     3.208682    -3.072913    -7.625078
H     4.085463    -3.046038    -7.196624
H    -0.675694     8.813838    -2.290338
O    -0.554829     9.643812    -1.773396
H     0.208330     9.472856    -1.196752
H     2.082504    -0.902761     5.218213
O     1.510812    -1.428121     5.807157
H     1.605506    -1.081406     6.703699
H     5.218627    -2.028605    -5.685762
O     5.566622    -2.794900    -6.206501
H     5.295433    -3.584625    -5.687010
H     5.722783    -5.196141     4.699632
O     5.200957    -5.110884     5.526562
H     4.481169    -5.745125     5.442640
H    -3.962947     1.143492     7.013082
O    -3.771867     1.621450     7.855883
H    -4.648793     2.005307     8.116357
H    -1.868416     9.601517    -0.758872
O    -2.728243     9.473686    -0.283638
H    -3.341420     10.099532    -0.672616
H    -5.952821     4.660397    -2.939141
O    -6.861468     4.537553    -3.282181
H    -6.769305     3.834126    -3.957928
H     0.120201    -7.075059    -1.120711
O     0.593366    -7.502044    -0.374387
H    -0.080332    -7.708722     0.276082
H    -7.638816     3.759424    -1.971098
O    -7.898412     3.173132    -1.229792
H    -7.752554     2.264298    -1.567574
H     3.990398    -0.873502     6.992067
O     3.996265     0.090691     6.981219
H     4.807377     0.381941     6.548289
H     2.251566     5.793413    -1.187211
O     3.188032     5.503832    -1.072915
H     3.365770     4.962407    -1.864989
H     6.577740    -5.917127     0.687060
O     6.211744    -6.653011     1.222954
H     5.306382    -6.378169     1.449507
H    -3.867056     4.728695     7.779226
O    -3.299674     4.266076     7.120761
H    -3.489984     3.322325     7.233615
H     5.794519    -7.936342     0.156976
O     5.509332    -8.624948    -0.479915
H     4.677453    -8.304349    -0.872742
H    -0.548169     2.050286     7.695435
O    -1.181914     1.982488     6.961078
H    -2.049560     1.839009     7.358701
H    -6.370598    -0.142363     1.072095
O    -6.691646    -0.231386     0.159908
H    -7.610458    -0.501637     0.180072
H    -5.355294    -3.084784    -0.575671
O    -5.106003    -2.384681     0.052953
H    -5.675491    -1.611157    -0.134841
H     4.312302     5.584052     0.311772
O     4.646483     5.687853     1.216513
H     3.950685     6.196902     1.668137
H    -9.030070    -1.781829    -2.237595
O    -8.482575    -1.576992    -1.452145
H    -8.608607    -2.311321    -0.811825
H    -5.527816     3.437172    -5.525468
O    -6.042659     2.725744    -5.108866
H    -5.373873     2.143383    -4.694304
H     3.189581    -0.898269    -5.648787
O     2.333792    -1.021441    -6.114155
H     2.421571    -1.871336    -6.585637
H     8.124568    -1.346571    -6.025279
O     8.135651    -2.209465    -5.566869
H     7.280482    -2.612636    -5.815791
H     7.624092     0.991954    -6.310557
O     7.437414     0.142353    -6.722147
H     6.456209     0.089248    -6.757380
H    -7.839132    -3.716421     0.949408
O    -8.523060    -3.614407     0.269969
H    -8.417197    -4.367202    -0.339742
H    -2.421090     8.726760     1.281754
O    -2.268239     8.140292     2.035992
H    -1.496576     7.588924     1.814003
H    -4.449646     6.424832     3.491963
O    -4.621831     6.848276     2.634573
H    -3.860237     7.436159     2.493044
H     3.398898     3.441758    -3.580683
O     3.242710     4.410781    -3.489333
H     2.277607     4.472329    -3.596579
H    -6.102752    -1.637268    -3.428347
O    -6.184586    -2.215657    -2.643411
H    -6.968346    -1.907976    -2.134743
H     6.477699     1.071432     4.739529
O     6.082631     1.610865     5.441418
H     6.267965     2.529337     5.148119
H     1.362885     1.706668    -5.820958
O     1.170169     1.111935    -5.065379
H     1.536573     0.249431    -5.333225
H    -2.481064     2.973520     10.485365
O    -2.266726     2.065794     10.214140
H    -2.864072     1.862952     9.482371
H     7.640555    -0.476641     3.085978
O     6.889097     0.097399     3.254091
H     6.198776    -0.504195     3.635194
H    -5.911080    -7.976501    -0.457736
O    -5.042135    -8.032344     0.012083
H    -5.005438    -7.262225     0.608801
H    -5.170339    -0.149950    -4.704774
O    -5.785924    -0.864096    -4.941649
H    -6.625084    -0.424926    -5.141127
H     1.895614    -0.215928    -7.509459
O     1.691864     0.253456    -8.354285
H     2.269403    -0.151455    -9.006838
H     4.880224    -1.406058    -9.297757
O     3.954319    -1.180156    -9.580088
H     3.933786    -1.301184    -10.528718
H     7.583573    -2.547243     4.207067
O     7.729889    -2.584734     3.247565
H     7.238843    -3.377777     2.977737
H     6.748339    -5.876650     2.699796
O     6.809399    -5.199555     3.399281
H     7.685679    -5.282094     3.816602
H    -1.833965     8.944265     3.484844
O    -1.586704     9.251714     4.382367
H    -2.435628     9.382758     4.838007
H    -7.387992     1.529186    -5.242904
O    -7.960652     0.784048    -4.995657
H    -8.863414     1.181527    -4.920168
H     6.933686    -1.088617    -8.399973
O     6.353473    -1.811759    -8.661730
H     6.127521    -2.260615    -7.828670
H    -1.689038     6.214827    -7.028839
O    -2.084690     5.389250    -6.752971
H    -1.834916     5.261200    -5.789283
H     0.007114     3.325048     9.022479
O     0.206828     2.406435     9.279605
H    -0.590403     2.141166     9.787140
H     6.772353    -2.773563    -2.696852
O     6.243936    -3.518292    -2.353957
H     6.714374    -4.328608    -2.598528
H    -4.062367    -3.101391    -4.928182
O    -4.219192    -2.991328    -5.892675
H    -4.767709    -2.199227    -5.949752
H     1.989390     2.201788     8.465797
O     2.652246     2.314713     7.774877
H     3.077001     1.445464     7.661054
H    -6.880878    -5.241014    -1.379629
O    -7.807812    -5.485808    -1.608782
H    -7.934586    -5.107131    -2.503274
H    -3.828353     5.252692     5.694545
O    -3.798363     6.019823     5.101912
H    -2.865149     6.317132     5.194612
H    -7.876999     0.055835    -1.955093
O    -7.389131     0.779515    -2.370539
H    -7.618005     0.766119    -3.323662
H     5.847067     0.140983     0.414493
O     5.623580     0.863361     1.033881
H     6.134930     0.671325     1.846903
H    -6.209949     3.305269     7.399458
O    -6.080201     2.789246     8.229229
H    -6.678359     2.026078     8.143188
H     2.308598    -8.076011    -0.820443
O     2.985862    -8.062585    -1.516701
H     2.763157    -8.779214    -2.127896
H    -2.728169    -3.988668    -6.179874
O    -1.973810    -4.553177    -5.946857
H    -1.696583    -4.258715    -5.050897
H    -5.641067     3.752264     5.311279
O    -6.291114     4.148295     5.927848
H    -6.129764     5.092704     5.912688
H    -0.990496    -7.130186    -3.147636
O    -0.524586    -6.456831    -2.618303
H     0.385375    -6.387691    -2.993438
H     4.451957     2.034525     5.128194
O     3.509621     2.271375     5.008332
H     3.125977     2.288024     5.890488
H     4.110445     4.676877     6.294712
O     4.188516     5.406056     5.675128
H     3.621117     5.162100     4.905155
H     2.767124     3.628259     3.919884
O     2.586544     4.567426     3.751785
H     2.466285     4.663319     2.785204
H     9.401977     0.228310    -1.071076
O     8.596004     0.390528    -0.577206
H     8.422530    -0.427724    -0.082217
H    -2.099030     5.334014     10.647003
O    -2.819171     4.704027     10.880364
H    -3.037247     4.882826     11.795304
H     7.991375    -2.992588     0.335555
O     8.410361    -2.144126     0.588564
H     8.345132    -2.137448     1.550909
H     5.372625     3.681914     3.520176
O     6.028586     3.950948     4.185222
H     5.614165     4.668900     4.685613
H    -4.206760     5.028380     9.783290
O    -4.840968     5.175653     9.061469
H    -5.450523     4.425169     9.061350
H    -6.994388    -3.511911    -3.465268
O    -7.611804    -4.129402    -3.910619
H    -7.090072    -4.568727    -4.613936
H     0.027140     6.148506     10.763957
O    -0.838521     6.477006     10.516579
H    -0.724526     6.905731     9.649108
H     2.592114     1.487457    -4.103422
O     3.469550     1.843469    -3.866353
H     3.792046     1.331049    -3.094919
H    -6.957557    -0.226310     7.231718
O    -7.468418     0.551082     7.510884
H    -8.092013     0.731942     6.806495
H    -2.884946    -9.645887    -0.670525
O    -2.648394    -8.778115    -1.046682
H    -3.510013    -8.313027    -0.976997
H    -10.070708     3.031126    -4.891965
O    -10.185163     2.114168    -4.608482
H    -10.400233     2.200557    -3.658763
H    -2.046627    -3.025071     4.629589
O    -2.920797    -3.466875     4.700092
H    -2.911863    -4.086606     3.945103
H    -0.144129    -7.984329     2.513120
O     0.682246    -7.766640     2.958192
H     1.399609    -8.065147     2.371847
H     6.726019    -2.348675     6.400366
O     7.177473    -3.058158     5.938346
H     6.549566    -3.794879     5.901629
H    -5.252245    -2.006986     6.958672
O    -5.930890    -1.512823     6.473902
H    -5.913480    -1.891640     5.565650
H     0.832597     3.012955    -7.115310
O     1.751093     2.684699    -7.171436
H     1.738952     1.935447    -7.795264
H    -3.964665     8.756411     6.662174
O    -3.963997     8.751921     5.704811
H    -4.086497     7.823312     5.439505
H    -2.080495     10.296610    -2.752793
O    -2.982874     10.475016    -3.054367
H    -2.913414     11.107423    -3.768868
H     9.434146    -4.031696     4.053915
O     9.157620    -4.708997     4.678812
H     8.726550    -4.236201     5.401726
H    -0.712230    -6.017212    -5.820832
O    -0.006702    -6.580641    -5.486775
H     0.827532    -6.117589    -5.705567
H     1.812799     8.276495     0.650751
O     1.507865     8.595434    -0.227324
H     2.321996     8.634286    -0.758595
H     3.495268     2.918499    -6.664572
O     4.324043     2.631749    -6.255261
H     4.080339     2.359262    -5.345582
H     3.722366     7.126883    -1.242187
O     3.925359     8.062665    -1.458136
H     4.294121     8.005290    -2.351573
H     4.399264    -0.019073    -7.908051
O     4.776679     0.130391    -7.039329
H     4.592581     1.062353    -6.797809
H     6.034764     1.942645    -0.477308
O     6.598952     2.135859    -1.239926
H     7.424924     1.658712    -1.045578
H     6.715715    -8.422168    -1.585673
O     7.351324    -8.211715    -2.322848
H     7.718230    -9.046163    -2.609912
H    -5.274718    -5.820720    -5.387673
O    -5.897664    -5.151757    -5.697590
H    -5.351234    -4.381265    -5.938431
H     0.677786     7.188053     7.590916
O    -0.223572     7.214093     7.951042
H    -0.779702     7.225278     7.133933
H    -8.882577    -2.873865    -4.082505
O    -9.405006    -2.066638    -3.915671
H    -9.122119    -1.401941    -4.547460
H    -2.381623    -6.004568    -2.121463
O    -3.266709    -5.733106    -2.384637
H    -3.445496    -6.097310    -3.277207
H    -2.966581    -5.926638    -5.385011
O    -3.563466    -6.536513    -4.909064
H    -3.075575    -7.354756    -4.743019
H    -1.396477     3.701309    -6.983664
O    -0.853971     2.947736    -6.711242
H    -1.088865     2.160598    -7.259183
H    -0.201504     0.392705    -8.209939
O    -1.098041     0.626020    -7.926409
H    -1.270936     0.103882    -7.127042
H    -10.426622     4.013088    -2.729297
O    -10.491206     3.235477    -2.159367
H    -9.661219     3.212871    -1.651256
H     4.580184     4.091516     1.714552
O     4.374365     3.170750     1.995448
H     5.091365     2.595856     1.714898
H     6.488528     1.400867    -4.220579
O     6.187488     0.777626    -3.525012
H     6.217874     1.274959    -2.682291
H     9.648158    -2.207515    -0.924487
O     9.923710    -1.993706    -1.824757
H     9.121903    -1.658823    -2.268476
H     9.986073    -3.306088    -3.091269
O     9.720633    -3.960351    -3.764650
H     9.324676    -3.455593    -4.485656
H    -8.111312    -8.364925    -0.809733
O    -7.384983    -8.028847    -1.342465
H    -7.633278    -7.080861    -1.503491
H     4.150639     6.078256    -3.831196
O     4.809770     6.781619    -3.748439
H     5.647361     6.330378    -3.610432
H     0.133187    -8.184996    -5.195244
O     0.162882    -9.167629    -5.062547
H     0.309335    -9.533248    -5.934703
H    -2.205792    -8.757207    -2.820394
O    -1.996842    -8.421214    -3.712296
H    -1.313814    -8.976521    -4.115388
H     2.215609    -10.824981    -3.453374
O     2.177701    -9.869681    -3.445925
H     1.388703    -9.602744    -3.967968
H     6.832767     3.333685    -4.580498
O     6.892431     2.654124    -5.279888
H     6.098065     2.783504    -5.820179
H    -3.536920    -3.718718     7.739701
O    -3.656547    -2.933484     7.206994
H    -3.403843    -3.173861     6.289352
H    -0.623847    -3.385083    -6.709245
O     0.003828    -2.651537    -6.719319
H    -0.479762    -1.876760    -6.378817
H     0.656330     0.478624     8.758203
O     0.665519    -0.237650     8.119332
H    -0.255817    -0.529603     8.032948
H    -5.848145     7.337530    -4.257424
O    -6.349920     6.715957    -4.816512
H    -6.634250     5.985682    -4.223320
H    -4.296988     9.079179    -3.274630
O    -4.830415     8.281838    -3.165905
H    -4.419924     7.805211    -2.426269
H    -9.721628     5.754613    -4.645133
O    -10.252667     4.948802    -4.479486
H    -11.133966     5.146627    -4.798283
H     2.764645     6.532706     6.129853
O     1.804349     6.626872     6.228296
H     1.463270     5.712331     6.128243
H     4.789420     8.555836     0.067295
O     5.107565     8.559858     0.987966
H     5.516928     7.696974     1.120689
H     4.169924    -7.430129    -4.321251
O     3.412310    -7.716721    -4.863167
H     3.134159    -8.558213    -4.486490
H     0.365734     8.665938     4.220812
O     1.045068     8.022710     3.993607
H     1.273667     7.532383     4.809215
H     5.230907     4.193200    -3.164489
O     6.192474     4.166385    -3.112271
H     6.403673     3.587086    -2.363386
H    -2.558660    -1.538841     7.585618
O    -2.050414    -0.743720     7.803475
H    -2.677473    -0.118265     8.176864
H    -9.043561     7.897947    -4.151404
O    -8.979400     7.311253    -4.906470
H    -8.021923     7.149880    -5.042196
H     3.563679    -8.974385     1.115513
O     2.887782    -8.341316     1.362787
H     3.361982    -7.535473     1.640816
H     3.572432     8.181380     1.814287
O     2.783482     7.616068     1.928520
H     2.337421     7.852389     2.754553
N    -3.986986    -10.578077     0.572956
H    -4.578591    -9.799610     0.563295
H    -4.542726    -11.317682     0.312980
