603

H     0.208025     3.054220    -0.669525
O     0.729265     2.383665    -1.160867
H     1.668748     2.511547    -0.888734
H    -0.078163    -1.292909     3.149214
O     0.315328    -0.591977     2.606851
H    -0.161055     0.221752     2.841656
H    -2.392406     2.436334    -0.530694
O    -2.184759     1.964505     0.293581
H    -2.199925     1.017177     0.066213
H    -4.661176     0.571244     2.182248
O    -4.980837    -0.361208     2.192158
H    -4.475696    -0.838465     1.525647
H     0.064746    -0.289197     0.952029
O    -0.133813    -0.050055     0.026104
H     0.209071     0.845423    -0.093952
H    -0.160903    -3.564262     3.770480
O    -0.438695    -2.734875     4.193154
H     0.207680    -2.567198     4.895421
H    -4.881278     2.556634     1.335405
O    -4.242397     2.145683     1.949237
H    -3.399650     2.126633     1.435863
H    -3.245346     3.918620    -2.203974
O    -2.506064     3.325387    -1.971041
H    -2.141684     3.046989    -2.831930
H    -0.130542    -3.784265     0.495280
O     0.210489    -2.968528     0.915644
H    -0.576169    -2.481308     1.227820
H    -2.380391    -1.518639     2.465802
O    -2.192334    -1.983288     1.624043
H    -2.448249    -1.393864     0.895470
H     2.072252    -1.422847    -1.122680
O     2.302826    -1.678239    -0.205540
H     1.512719    -2.105580     0.176589
H    -1.386561     1.843524     1.916348
O    -1.480876     1.444385     2.791458
H    -1.464212     2.154972     3.458123
H     0.205996    -2.678329    -1.575486
O    -0.549201    -2.065991    -1.628132
H    -0.368493    -1.340681    -0.993358
H    -3.440192    -2.896618    -0.398573
O    -2.724005    -3.389518    -0.820033
H    -2.012378    -2.759929    -1.037037
H     2.772579     0.137925     2.936051
O     2.870604    -0.046930     3.897514
H     2.963513     0.844809     4.304177
H    -3.517948     6.397777    -0.540861
O    -3.264575     7.064597    -1.233707
H    -3.132808     7.904793    -0.752337
H     3.903015     0.595424     1.189957
O     2.952164     0.414813     1.305582
H     2.713983    -0.335353     0.723607
H    -5.778607     0.877618    -1.603434
O    -4.867790     1.203187    -1.476421
H    -4.976393     2.030041    -0.962688
H    -1.202791     5.414873     2.222714
O    -1.831444     4.671087     2.104091
H    -1.908551     4.248793     2.964943
H     3.499338     2.776372     0.434702
O     3.250683     2.736539    -0.504270
H     3.582682     1.895030    -0.857956
H     1.485031    -4.672621    -2.260753
O     1.550721    -3.897169    -1.685319
H     2.346201    -3.436356    -2.035115
H    -0.919961    -0.055552    -2.548029
O    -0.283727     0.595855    -2.869945
H    -0.023150     1.176397    -2.131878
H     1.692297    -4.666758    -0.189140
O     1.797438    -5.305720     0.552208
H     1.332965    -6.115389     0.253850
H    -1.229566    -3.234638    -2.887752
O    -1.058057    -3.917217    -3.549861
H    -0.932759    -4.765236    -3.082663
H    -2.776400     3.323764     4.712182
O    -1.795239     3.320186     4.678406
H    -1.503062     2.915329     5.513413
H     0.969306     5.044740     4.088968
O     0.023471     5.278330     4.141572
H    -0.449504     4.475032     4.397255
H    -1.737370    -4.625364    -0.382782
O    -0.973397    -5.168251    -0.098747
H    -1.322428    -5.855830     0.477731
H    -3.979754     5.774227    -2.410383
O    -4.315332     4.979955    -2.831968
H    -4.112560     5.008211    -3.802720
H    -2.437023    -3.668403     1.926887
O    -2.457320    -4.573370     2.300758
H    -1.517973    -4.813543     2.440871
H    -4.698468    -2.943564    -2.906944
O    -3.846649    -3.176731    -3.313921
H    -3.516634    -3.971790    -2.850464
H     0.340504     1.386331     4.619463
O     0.846969     2.146950     4.287598
H     0.897745     2.803582     4.996432
H    -4.662687    -5.136388    -1.584700
O    -5.364204    -4.783243    -1.010293
H    -5.151829    -5.140254    -0.126999
H     2.317424    -6.454245    -4.054055
O     1.980571    -6.127524    -3.199690
H     2.414175    -6.703526    -2.537848
H     0.463076    -3.348575    -4.013382
O     1.266968    -2.982531    -4.434823
H     0.949101    -2.607391    -5.282413
H     1.960690    -1.742277     2.978902
O     2.114041    -2.673055     2.759827
H     1.428293    -2.883745     2.091755
H    -3.016263    -1.774182    -3.214568
O    -2.592983    -0.888649    -3.145872
H    -3.246097    -0.240941    -3.466158
H    -3.180526     5.001968     1.086426
O    -3.961283     5.379665     0.632904
H    -4.374036     5.935336     1.342486
H     0.880159     2.266994     2.598047
O     0.980722     2.264935     1.626867
H     1.706536     1.640902     1.460543
H     0.203123     5.679297    -0.745059
O     0.731871     6.340429    -1.247155
H     0.871902     7.139041    -0.689325
H     0.355472     7.050098     2.608876
O    -0.008663     6.672907     1.790817
H     0.654108     6.001876     1.526530
H    -2.480336     0.233223     3.341296
O    -2.704241    -0.581368     3.844417
H    -1.943729    -0.624119     4.465985
H    -0.894779     0.561985     6.027234
O    -0.621613     0.044221     5.251446
H     0.091050    -0.561167     5.536507
H     0.700790    -4.978820     1.969008
O     0.158017    -5.089543     2.773017
H     0.301293    -6.011022     3.042937
H    -2.132292    -8.064117     0.428387
O    -1.809465    -7.578825     1.215064
H    -2.595405    -7.267135     1.671404
H    -0.326298     6.905810    -2.230094
O    -1.079030     7.318313    -2.738331
H    -1.854150     7.170985    -2.157077
H    -1.107163     4.330554     0.582334
O    -0.734782     4.396225    -0.313459
H    -1.439736     4.153256    -0.947563
H    -4.405126     2.767776     3.512812
O    -4.404781     2.936395     4.477718
H    -4.488998     2.052424     4.884801
H     2.016699    -3.575029     4.236845
O     1.951735    -4.049124     5.088976
H     2.459965    -3.515059     5.720904
H     4.682457    -3.183852     0.833339
O     4.522311    -3.105762    -0.132945
H     3.664402    -2.626527    -0.215586
H    -2.722650    -0.718563    -1.353779
O    -3.050225    -0.450757    -0.478598
H    -3.849362     0.077147    -0.684636
H    -1.614457    -0.724393    -4.632631
O    -1.107358    -0.508531    -5.436174
H    -0.397198     0.087795    -5.150908
H     1.793878    -1.688105    -3.380398
O     1.886707    -0.943879    -2.754311
H     1.111150    -0.364155    -2.885342
H     3.657160    -3.113821     2.544781
O     4.615834    -3.344262     2.471648
H     4.668803    -4.304853     2.595750
H     3.414779    -6.113902     3.109927
O     3.771037    -5.911627     2.210320
H     3.034376    -5.563250     1.667989
H    -3.338829     1.648155    -4.176493
O    -4.185198     1.178715    -3.985951
H    -4.400790     1.322727    -3.029197
H    -5.073837     4.179056     0.076117
O    -5.515111     3.314889    -0.029688
H    -6.444112     3.436859    -0.313637
H     6.732654    -1.169722    -1.363617
O     5.961162    -1.020383    -0.810641
H     5.540374    -1.887846    -0.616028
H     4.589329    -3.150264    -2.476320
O     3.721623    -2.976680    -2.891625
H     3.724174    -3.592922    -3.649835
H     4.429212    -2.294319     5.618070
O     4.085247    -2.761239     6.410006
H     4.418853    -3.666586     6.326134
H    -0.744211     6.347713     5.091043
O    -1.340521     6.923561     5.629887
H    -1.351045     7.801760     5.191051
H     4.699014    -0.120538    -1.464660
O     3.932389     0.423788    -1.725450
H     3.239266    -0.174465    -2.058400
H    -0.606893     4.538158    -4.023364
O    -1.407141     5.062310    -4.237598
H    -1.265923     5.910888    -3.780205
H     0.673042     3.224784    -2.647281
O     0.684098     3.606681    -3.553056
H     0.721943     2.848345    -4.145586
H    -5.393152    -5.166629     1.780715
O    -4.697518    -5.761691     1.424141
H    -3.856210    -5.348051     1.695967
H     7.879482    -1.673772    -4.035517
O     7.622127    -1.362381    -3.135036
H     7.136861    -0.517125    -3.289731
H     3.693401    -5.044679    -5.301280
O     4.456541    -4.674248    -4.818962
H     4.839394    -5.387451    -4.274994
H    -3.785439     0.035149     4.934196
O    -4.385776     0.498814     5.567695
H    -5.047026    -0.159016     5.857794
H     3.453866    -5.926224    -0.532737
O     4.327309    -5.680134    -0.849380
H     4.405311    -4.718212    -0.703764
H     5.001164    -0.313323    -4.159843
O     4.465284    -1.023513    -4.551127
H     4.137522    -1.607294    -3.834587
H    -1.168064     1.605612    -3.934660
O    -1.820125     2.226225    -4.316576
H    -1.462264     2.565972    -5.160021
H     4.874194    -6.304342    -2.328642
O     5.206436    -6.628181    -3.194934
H     6.023721    -7.110692    -3.009259
H     8.731851    -5.079718    -2.928310
O     8.039863    -5.497723    -2.370969
H     8.072789    -6.454808    -2.475591
H     2.346428     4.736232     0.464163
O     1.766150     4.717479     1.234708
H     1.408129     3.797238     1.310179
H    -4.421422    -2.615018     4.224469
O    -5.314739    -2.273134     4.022834
H    -5.176192    -1.491091     3.449013
H    -5.852465    -3.166675     1.308855
O    -6.316722    -3.724156     1.975830
H    -6.127222    -3.291271     2.827441
H     1.690849     3.470587     6.871740
O     1.068743     3.988617     6.339256
H     0.285915     4.141275     6.911044
H     4.995797    -2.166036     3.612870
O     5.017289    -1.449466     4.278837
H     4.206642    -0.891262     4.123049
H     2.378939    -5.571336     4.826335
O     2.757500    -6.455267     4.564527
H     2.011519    -7.035002     4.388536
H     2.250503    -4.482805    -6.800189
O     2.080121    -4.972835    -5.985759
H     1.816477    -4.282499    -5.328927
H     6.432386    -4.092759    -0.511491
O     7.184551    -4.498501    -0.048828
H     7.691383    -4.920278    -0.770514
H    -1.719874     4.496629     7.711358
O    -0.821222     4.592088     8.097741
H    -0.638203     5.550739     8.124369
H    -5.061092     5.648425    -5.591394
O    -4.477272     4.878396    -5.500568
H    -3.686610     5.022049    -6.077484
H     3.278144    -2.492353    -8.441721
O     3.189983    -3.027391    -7.641986
H     4.066477    -3.004731    -7.212883
H    -0.639250     8.858962    -2.251421
O    -0.518817     9.686261    -1.724436
H     0.247263     9.509587    -1.153263
H     2.063064    -0.907374     5.210179
O     1.488937    -1.433184     5.796414
H     1.583941    -1.090467     6.694473
H     5.203223    -1.998895    -5.696521
O     5.548319    -2.764719    -6.219986
H     5.272712    -3.555252    -5.704429
H     5.684341    -5.215289     4.675548
O     5.162130    -5.131370     5.502391
H     4.439527    -5.761882     5.415125
H    -3.974407     1.158925     7.009023
O    -3.781798     1.632844     7.853856
H    -4.657297     2.019063     8.115428
H    -1.829517     9.638180    -0.728895
O    -2.696065     9.508091    -0.262153
H    -3.293043     10.166413    -0.618212
H    -5.941687     4.730195    -2.938481
O    -6.848264     4.632875    -3.294589
H    -6.763652     3.922363    -3.965369
H     0.081810    -7.040746    -1.159389
O     0.545031    -7.479270    -0.412567
H    -0.134649    -7.674292     0.235693
H    -7.627455     3.835094    -1.979437
O    -7.888321     3.250269    -1.238741
H    -7.748499     2.339617    -1.575957
H     3.969707    -0.894770     6.985747
O     3.980064     0.069403     6.979297
H     4.792768     0.358913     6.548138
H     2.272816     5.814999    -1.163620
O     3.207651     5.519838    -1.050003
H     3.382209     4.982682    -1.846040
H     6.539333    -5.922177     0.659843
O     6.169365    -6.659050     1.191933
H     5.265222    -6.380892     1.418989
H    -3.863073     4.740190     7.790955
O    -3.297594     4.278376     7.130296
H    -3.491586     3.334843     7.239165
H     5.747606    -7.935415     0.121154
O     5.458557    -8.620813    -0.517683
H     4.630194    -8.292794    -0.911573
H    -0.556201     2.046569     7.698303
O    -1.189600     1.985478     6.963074
H    -2.058230     1.843867     7.359242
H    -6.383051    -0.091437     1.061371
O    -6.705083    -0.169220     0.148516
H    -7.623153    -0.442237     0.166636
H    -5.377503    -3.031344    -0.595603
O    -5.125316    -2.330539     0.031851
H    -5.693148    -1.556282    -0.155662
H     4.327933     5.589976     0.334540
O     4.661284     5.688180     1.240437
H     3.967411     6.198739     1.693066
H    -9.047210    -1.701210    -2.258565
O    -8.499884    -1.501719    -1.471599
H    -8.627772    -2.240171    -0.836044
H    -5.529164     3.499193    -5.516727
O    -6.051881     2.792578    -5.097640
H    -5.383014     2.207540    -4.686939
H     3.179392    -0.859726    -5.656553
O     2.323094    -0.978276    -6.121806
H     2.407778    -1.825692    -6.598048
H     8.112260    -1.329121    -6.030214
O     8.119152    -2.194257    -5.575756
H     7.262209    -2.592017    -5.827399
H     7.622347     1.012699    -6.306406
O     7.432246     0.165282    -6.720961
H     6.450728     0.117530    -6.758140
H    -7.868298    -3.658299     0.920483
O    -8.546312    -3.548466     0.236144
H    -8.449297    -4.306828    -0.367159
H    -2.387915     8.760368     1.309485
O    -2.242503     8.170252     2.062031
H    -1.472598     7.615046     1.842135
H    -4.434516     6.457737     3.509286
O    -4.602441     6.886736     2.653602
H    -3.836841     7.470718     2.517510
H     3.408450     3.469632    -3.567767
O     3.258808     4.438820    -3.469801
H     2.294622     4.507434    -3.582108
H    -6.118281    -1.565235    -3.446405
O    -6.202981    -2.145415    -2.663205
H    -6.986588    -1.837724    -2.154593
H     6.467811     1.048322     4.744013
O     6.074548     1.586191     5.448111
H     6.264197     2.505175     5.159079
H     1.363088     1.755131    -5.817778
O     1.168172     1.156786    -5.064690
H     1.531224     0.294620    -5.337324
H    -2.487382     2.966425     10.490631
O    -2.276834     2.058993     10.215527
H    -2.874490     1.862039     9.482390
H     7.625132    -0.497620     3.084272
O     6.876176     0.078962     3.254748
H     6.182782    -0.521085     3.632429
H    -5.674398    -8.020568    -0.719126
O    -4.939948    -8.092125    -0.072613
H    -4.942148    -7.275856     0.450942
H    -5.176851    -0.077226    -4.716263
O    -5.795528    -0.787600    -4.956489
H    -6.632757    -0.344512    -5.154855
H     1.888900    -0.163292    -7.515011
O     1.687685     0.309001    -8.358458
H     2.264990    -0.094999    -9.011689
H     4.870249    -1.360312    -9.305963
O     3.945324    -1.129986    -9.587485
H     3.925377    -1.242948    -10.537112
H     7.557429    -2.572991     4.196206
O     7.704425    -2.607074     3.236688
H     7.209736    -3.396384     2.962795
H     6.708589    -5.891856     2.673108
O     6.771352    -5.218578     3.376037
H     7.647122    -5.306082     3.793585
H    -1.806774     8.964999     3.517697
O    -1.559619     9.267964     4.416466
H    -2.408367     9.399551     4.872388
H    -7.388661     1.610050    -5.244804
O    -7.966020     0.865900    -5.003176
H    -8.866204     1.267070    -4.927548
H     6.924098    -1.054599    -8.405188
O     6.341952    -1.774896    -8.670507
H     6.112692    -2.225582    -7.839404
H    -2.283589     6.295356    -6.913679
O    -2.183389     5.358176    -6.714465
H    -1.767650     5.326910    -5.805222
H     0.003898     3.312759     9.031625
O     0.199109     2.392121     9.284803
H    -0.599832     2.128272     9.790402
H     6.750493    -2.764201    -2.709666
O     6.218983    -3.508385    -2.369971
H     6.685881    -4.319383    -2.618818
H    -4.083174    -3.032581    -4.950435
O    -4.237538    -2.918073    -5.914972
H    -4.782261    -2.123226    -5.969857
H     1.981423     2.182827     8.471599
O     2.645300     2.295898     7.781690
H     3.066338     1.425312     7.664332
H    -6.917995    -5.163810    -1.407043
O    -7.834189    -5.430812    -1.653199
H    -7.966675    -5.026441    -2.535501
H    -3.820438     5.273716     5.707653
O    -3.786025     6.043450     5.118487
H    -2.851246     6.335234     5.213810
H    -7.885440     0.130180    -1.965096
O    -7.396825     0.855483    -2.377207
H    -7.622661     0.843302    -3.331193
H     5.836561     0.140364     0.414095
O     5.615529     0.860527     1.036899
H     6.125716     0.662780     1.849187
H    -6.212388     3.329002     7.402730
O    -6.085496     2.809185     8.230467
H    -6.686681     2.048748     8.140665
H     2.262151    -8.054154    -0.859412
O     2.939552    -8.041433    -1.555246
H     2.713436    -8.753609    -2.170099
H    -2.751885    -3.920784    -6.205492
O    -2.000035    -4.489641    -5.974363
H    -1.722681    -4.199827    -5.076976
H    -5.639196     3.782452     5.317459
O    -6.288469     4.179521     5.934265
H    -6.120755     5.122884     5.925189
H    -1.031987    -7.083416    -3.178159
O    -0.558536    -6.415905    -2.648056
H     0.349126    -6.347043    -3.028743
H     4.446167     2.019283     5.135006
O     3.504960     2.260835     5.015675
H     3.120846     2.275291     5.897651
H     4.116115     4.657705     6.313007
O     4.197186     5.389671     5.697109
H     3.629858     5.151372     4.925322
H     2.769754     3.626200     3.932352
O     2.592988     4.566840     3.768458
H     2.474594     4.667629     2.802101
H     9.392895     0.217629    -1.068508
O     8.587715     0.381178    -0.573792
H     8.409912    -0.438737    -0.083216
H    -2.094518     5.324330     10.663199
O    -2.817969     4.696846     10.892957
H    -3.035746     4.872131     11.808651
H     7.966346    -3.003282     0.323060
O     8.389292    -2.158140     0.580204
H     8.323096    -2.155037     1.542477
H     5.376383     3.669227     3.534913
O     6.032385     3.931830     4.202604
H     5.621122     4.650135     4.704968
H    -4.202948     5.032422     9.796132
O    -4.835860     5.185812     9.074428
H    -5.448727     4.438006     9.070479
H    -7.017678    -3.435433    -3.492740
O    -7.639468    -4.044971    -3.942465
H    -7.119034    -4.486619    -4.645514
H     0.035358     6.128069     10.785821
O    -0.828410     6.461902     10.538962
H    -0.711371     6.893971     9.673583
H     2.590702     1.522794    -4.101879
O     3.470259     1.871817    -3.861672
H     3.788600     1.354912    -3.091969
H    -6.975195    -0.197954     7.219585
O    -7.482611     0.580909     7.501164
H    -8.105475     0.766320     6.797321
H    -2.761843    -9.844366    -0.850129
O    -2.697001    -8.902495    -1.007932
H    -3.602205    -8.534885    -0.766711
H    -10.064638     3.126186    -4.890210
O    -10.184438     2.208798    -4.611281
H    -10.399758     2.289948    -3.661505
H    -2.075212    -3.007852     4.608647
O    -2.951188    -3.446131     4.677185
H    -2.945934    -4.062511     3.919668
H    -0.194250    -7.965281     2.469429
O     0.632351    -7.757421     2.918126
H     1.350290    -8.053219     2.330819
H     6.699409    -2.379717     6.389389
O     7.147653    -3.089610     5.924877
H     6.516163    -3.823041     5.884673
H    -5.278254    -1.985022     6.940078
O    -5.953576    -1.484590     6.457165
H    -5.937829    -1.859759     5.547176
H     0.846433     3.078696    -7.105089
O     1.758248     2.732726    -7.158590
H     1.738611     1.992227    -7.792114
H    -3.939768     8.774079     6.691105
O    -3.940589     8.772584     5.733714
H    -4.065635     7.844933     5.465924
H    -1.892915     10.418333    -2.681721
O    -2.771119     10.648767    -3.036147
H    -2.582562     11.044634    -3.891589
H     9.401285    -4.065665     4.037791
O     9.120529    -4.744420     4.659236
H     8.691655    -4.272637     5.384123
H    -0.746222    -5.960891    -5.852282
O    -0.043814    -6.529437    -5.519984
H     0.792520    -6.068850    -5.736746
H     1.841412     8.293733     0.683193
O     1.537642     8.618728    -0.193131
H     2.351822     8.654306    -0.725040
H     3.503752     2.960932    -6.655021
O     4.330435     2.666232    -6.246660
H     4.083983     2.392453    -5.338309
H     3.746495     7.142338    -1.213055
O     3.951758     8.078906    -1.423565
H     4.320471     8.024748    -2.317378
H     4.394163     0.024260    -7.910298
O     4.772131     0.167461    -7.040754
H     4.591611     1.099270    -6.794869
H     6.033147     1.944926    -0.469527
O     6.599021     2.138629    -1.230666
H     7.422627     1.656930    -1.037845
H     6.667373    -8.418528    -1.622861
O     7.303771    -8.207655    -2.358952
H     7.668342    -9.042089    -2.648976
H    -5.312881    -5.744223    -5.418898
O    -5.929002    -5.070420    -5.731924
H    -5.376316    -4.302812    -5.967283
H     0.693838     7.178825     7.617752
O    -0.207731     7.207827     7.977198
H    -0.763119     7.224859     7.159821
H    -8.903625    -2.785975    -4.106932
O    -9.422527    -1.976598    -3.938421
H    -9.134548    -1.311526    -4.567505
H    -2.422012    -5.956304    -2.155359
O    -3.299977    -5.668422    -2.422950
H    -3.487560    -6.040422    -3.309789
H    -2.998578    -5.859668    -5.420737
O    -3.599556    -6.469590    -4.949868
H    -3.118976    -7.291047    -4.785238
H    -1.370123     3.776245    -6.977274
O    -0.849165     3.014295    -6.698234
H    -1.085982     2.234812    -7.255957
H    -0.204493     0.460705    -8.214259
O    -1.100099     0.696528    -7.930144
H    -1.275137     0.171825    -7.133055
H    -10.416610     4.101075    -2.725201
O    -10.485975     3.323685    -2.155829
H    -9.654984     3.293192    -1.650044
H     4.586793     4.090635     1.730832
O     4.377236     3.169695     2.008757
H     5.091187     2.592724     1.724727
H     6.486911     1.417485    -4.215544
O     6.183705     0.792239    -3.522430
H     6.214863     1.286430    -2.677975
H     9.627631    -2.219963    -0.932655
O     9.904761    -2.004180    -1.831942
H     9.105041    -1.663034    -2.274773
H     9.962067    -3.310755    -3.104120
O     9.693971    -3.960928    -3.780447
H     9.301038    -3.451073    -4.499578
H    -7.715679    -8.533780    -1.683449
O    -6.976787    -7.940443    -1.810340
H    -7.352727    -7.026787    -1.798621
H     4.170648     6.106725    -3.807962
O     4.834296     6.804634    -3.715531
H     5.669244     6.346637    -3.584462
H     0.081823    -8.136575    -5.231916
O     0.103651    -9.119875    -5.102165
H     0.253775    -9.481952    -5.975494
H    -2.349521    -8.640728    -2.733321
O    -2.115776    -8.375526    -3.642438
H    -1.469888    -8.993954    -4.002608
H     2.162208    -10.790540    -3.517773
O     2.117770    -9.835997    -3.490926
H     1.333197    -9.562372    -4.016941
H     6.840310     3.350108    -4.566860
O     6.897208     2.672721    -5.268605
H     6.104025     2.808568    -5.809280
H    -3.573176    -3.708811     7.714078
O    -3.686281    -2.919756     7.185627
H    -3.435196    -3.157311     6.266828
H    -0.645092    -3.323467    -6.730836
O    -0.012667    -2.594032    -6.736059
H    -0.492252    -1.817482    -6.393740
H     0.640257     0.464536     8.755131
O     0.646568    -0.248843     8.112993
H    -0.276107    -0.536030     8.024634
H    -5.951549     7.354183    -4.216431
O    -6.417089     6.725955    -4.788702
H    -6.693563     5.982777    -4.185197
H    -3.902252     9.194991    -3.308468
O    -4.370070     8.341396    -3.417650
H    -4.075504     7.843364    -2.636451
H    -9.704439     5.849263    -4.630409
O    -10.237079     5.044151    -4.471816
H    -11.117852     5.244414    -4.790558
H     2.778666     6.520375     6.155656
O     1.818673     6.618704     6.253541
H     1.473605     5.706092     6.149299
H     4.817791     8.561175     0.103235
O     5.134525     8.559406     1.024549
H     5.541047     7.694549     1.153113
H     4.128150    -7.401579    -4.357223
O     3.369642    -7.684144    -4.900092
H     3.087925    -8.525272    -4.525452
H     0.392043     8.673488     4.255232
O     1.067413     8.027359     4.024832
H     1.294070     7.532515     4.838326
H     5.241967     4.212099    -3.148478
O     6.203411     4.179180    -3.095384
H     6.410552     3.596060    -2.348504
H    -2.582623    -1.532538     7.570967
O    -2.071152    -0.740501     7.792700
H    -2.695950    -0.114195     8.168412
H    -9.036553     7.964853    -4.068161
O    -8.955013     7.416161    -4.849580
H    -7.997110     7.258225    -4.975835
H     3.512643    -8.965833     1.072301
O     2.837013    -8.333793     1.323309
H     3.312939    -7.529701     1.604606
H     3.598462     8.183908     1.846628
O     2.805834     7.622951     1.958473
H     2.361769     7.857449     2.785970
N    -3.464451     7.957341    -6.181016
H    -4.259369     8.297572    -6.601839
H    -3.665849     7.988467    -5.228737
