18

H     1.341167     1.613607    -5.802159
O     1.163130     1.035377    -5.022772
H     1.576768     0.188545    -5.268480
H     2.033476    -0.182277    -7.544480
O     1.918659     0.247253    -8.425380
H     2.522932    -0.258493    -8.989939
H     0.896643     3.125183    -7.126841
O     1.781877     2.714091    -7.059124
H     1.854182     2.110473    -7.810801
H    -1.417204     3.807549    -6.949274
O    -0.853121     3.057560    -6.693564
H    -1.101372     2.267137    -7.220415
H    -0.305367     0.248354    -8.085086
O    -1.168010     0.598427    -7.824708
H    -1.356721     0.135800    -6.981880
N     0.207920     2.365664    -9.984218
H     0.794078     1.617569    -9.820422
H    -0.668023     2.005318    -9.808604
