603

H     0.211316     3.018407    -0.687638
O     0.733213     2.350113    -1.181906
H     1.672127     2.476671    -0.907493
H    -0.069321    -1.316480     3.145582
O     0.321716    -0.616878     2.599625
H    -0.154002     0.197330     2.833955
H    -2.389302     2.402266    -0.543032
O    -2.178457     1.932259     0.281104
H    -2.196237     0.984137     0.057238
H    -4.654350     0.544542     2.178130
O    -4.973493    -0.388085     2.191706
H    -4.469294    -0.867402     1.526017
H     0.069421    -0.320465     0.945226
O    -0.129067    -0.082835     0.018613
H     0.213095     0.812616    -0.101809
H    -0.151459    -3.585842     3.774281
O    -0.429111    -2.755034     4.194419
H     0.218208    -2.585495     4.895444
H    -4.875273     2.527941     1.324668
O    -4.236112     2.117938     1.939347
H    -3.393653     2.098347     1.426213
H    -3.238090     3.890062    -2.219145
O    -2.501080     3.292252    -1.988601
H    -2.143855     3.003135    -2.848252
H    -0.126034    -3.817137     0.500310
O     0.214782    -2.998705     0.915573
H    -0.571184    -2.511435     1.229184
H    -2.372754    -1.544622     2.466152
O    -2.186267    -2.011609     1.625233
H    -2.443045    -1.424080     0.895598
H     2.071660    -1.459133    -1.127400
O     2.301003    -1.707013    -0.208643
H     1.513680    -2.137536     0.175498
H    -1.380327     1.816902     1.904851
O    -1.473291     1.420047     2.781052
H    -1.456176     2.132444     3.445859
H     0.208238    -2.716648    -1.574463
O    -0.545508    -2.102814    -1.630264
H    -0.365184    -1.377452    -0.995384
H    -3.436017    -2.931737    -0.393084
O    -2.720350    -3.424836    -0.815324
H    -2.008739    -2.795741    -1.033123
H     2.779912     0.114567     2.924960
O     2.878529    -0.066928     3.886760
H     2.972454     0.825751     4.290643
H    -3.513291     6.373957    -0.552187
O    -3.274323     7.035701    -1.253121
H    -3.130866     7.880836    -0.783418
H     3.909944     0.565363     1.176259
O     2.958669     0.388158     1.292145
H     2.718955    -0.366020     0.715721
H    -5.775478     0.839340    -1.607834
O    -4.864422     1.165546    -1.483186
H    -4.973547     1.994421    -0.971909
H    -1.195696     5.389014     2.200528
O    -1.821902     4.642886     2.084418
H    -1.899903     4.224637     2.947161
H     3.503589     2.745486     0.413725
O     3.255905     2.702425    -0.525615
H     3.586187     1.858188    -0.874432
H     1.494482    -4.712420    -2.257744
O     1.556830    -3.931985    -1.688478
H     2.356200    -3.475178    -2.031305
H    -0.917492    -0.097560    -2.554418
O    -0.282338     0.553539    -2.879512
H    -0.021020     1.136067    -2.142990
H     1.696670    -4.700578    -0.183635
O     1.799414    -5.336338     0.559750
H     1.338211    -6.148555     0.263318
H    -1.228660    -3.278692    -2.883572
O    -1.054652    -3.961695    -3.544585
H    -0.929936    -4.809248    -3.075621
H    -2.766301     3.305100     4.697320
O    -1.785109     3.301306     4.662553
H    -1.492186     2.899164     5.498628
H     0.978674     5.024113     4.064887
O     0.033011     5.258031     4.117163
H    -0.440062     4.455826     4.376194
H    -1.734105    -4.660277    -0.373668
O    -0.969276    -5.201848    -0.089899
H    -1.316018    -5.887593     0.490184
H    -3.904508     5.825269    -2.606294
O    -4.256817     4.991589    -2.935492
H    -4.102612     4.955908    -3.903704
H    -2.429800    -3.696108     1.934051
O    -2.449748    -4.600088     2.310065
H    -1.510101    -4.839794     2.450351
H    -4.696787    -2.985837    -2.900167
O    -3.845283    -3.220374    -3.307294
H    -3.515184    -4.014116    -2.841397
H     0.350748     1.367727     4.606748
O     0.856435     2.127570     4.271715
H     0.907864     2.786224     4.978633
H    -4.659190    -5.175430    -1.570606
O    -5.360237    -4.820431    -0.996850
H    -5.146936    -5.174335    -0.112441
H     2.314245    -6.506901    -4.043267
O     1.982059    -6.172267    -3.190335
H     2.417907    -6.745054    -2.526155
H     0.465602    -3.395847    -4.008413
O     1.267337    -3.029906    -4.435221
H     0.944121    -2.658816    -5.282521
H     1.968268    -1.766331     2.975104
O     2.120336    -2.697774     2.758725
H     1.434481    -2.910621     2.092006
H    -3.014805    -1.818246    -3.213400
O    -2.590899    -0.932342    -3.150817
H    -3.246356    -0.285954    -3.468894
H    -3.175993     4.970056     1.071542
O    -3.957303     5.344705     0.617288
H    -4.371033     5.903568     1.323540
H     0.886709     2.242187     2.581580
O     0.987302     2.237087     1.610289
H     1.713028     1.612180     1.446442
H     0.204579     5.644152    -0.769462
O     0.726933     6.304833    -1.279283
H     0.870609     7.104767    -0.724102
H     0.362143     7.025542     2.578554
O    -0.001054     6.645515     1.761434
H     0.661304     5.973139     1.500353
H    -2.471952     0.210055     3.336004
O    -2.694780    -0.603168     3.841698
H    -1.933526    -0.643700     4.462596
H    -0.883129     0.547559     6.018782
O    -0.610688     0.027811     5.244102
H     0.102335    -0.576894     5.530300
H     0.708419    -5.006439     1.976864
O     0.164778    -5.114459     2.780809
H     0.309868    -6.034611     3.054470
H    -2.127025    -8.096166     0.448699
O    -1.803508    -7.607927     1.233137
H    -2.588741    -7.295451     1.690077
H    -0.364685     6.850986    -2.336826
O    -1.110860     7.271643    -2.835924
H    -1.900543     7.147218    -2.271382
H    -1.100355     4.300262     0.564797
O    -0.728375     4.360266    -0.331806
H    -1.436040     4.118779    -0.963119
H    -4.396949     2.745385     3.501640
O    -4.394557     2.916567     4.466063
H    -4.478753     2.033895     4.875883
H     2.027217    -3.595454     4.238302
O     1.960872    -4.065428     5.092636
H     2.472294    -3.530763     5.721427
H     4.703783    -3.218131     0.815589
O     4.521889    -3.133019    -0.143949
H     3.662626    -2.657351    -0.210235
H    -2.719680    -0.756582    -1.356291
O    -3.046049    -0.485070    -0.482070
H    -3.845968     0.041655    -0.688526
H    -1.617309    -0.773593    -4.637210
O    -1.109359    -0.559408    -5.441240
H    -0.399655     0.037075    -5.155960
H     1.792209    -1.734615    -3.385282
O     1.890761    -0.985905    -2.765582
H     1.112907    -0.408351    -2.892323
H     3.666908    -3.140328     2.539889
O     4.625752    -3.367050     2.470849
H     4.682559    -4.327240     2.593805
H     3.424717    -6.137124     3.118069
O     3.778399    -5.939977     2.216911
H     3.041987    -5.590104     1.676289
H    -3.339685     1.602181    -4.182913
O    -4.185218     1.133233    -3.991531
H    -4.401791     1.279518    -3.034608
H    -5.070332     4.144751     0.060627
O    -5.510306     3.279350    -0.042197
H    -6.440891     3.399825    -0.322703
H     6.739722    -1.213627    -1.355556
O     5.955213    -1.062680    -0.823387
H     5.544175    -1.933529    -0.608442
H     4.572015    -3.254690    -2.501277
O     3.711688    -2.988572    -2.886852
H     3.638099    -3.599475    -3.641324
H     4.441012    -2.309963     5.612170
O     4.097802    -2.774069     6.406130
H     4.431634    -3.679696     6.324259
H    -0.733929     6.330886     5.064185
O    -1.329165     6.908273     5.602297
H    -1.341405     7.784980     5.160199
H     4.700314    -0.159998    -1.474656
O     3.936964     0.386279    -1.742769
H     3.241148    -0.213549    -2.066647
H    -0.733015     4.510289    -4.046648
O    -1.514814     5.054404    -4.255237
H    -1.362206     5.921003    -3.832852
H     0.667876     3.189315    -2.667668
O     0.675609     3.565244    -3.576787
H     0.719706     2.800965    -4.161392
H    -5.385916    -5.194854     1.795551
O    -4.690743    -5.790755     1.439493
H    -3.849035    -5.376628     1.709590
H     7.801476    -1.676316    -4.100755
O     7.546511    -1.388602    -3.187097
H     7.055579    -0.536789    -3.330356
H     3.617034    -5.145465    -5.357401
O     4.395098    -4.770997    -4.891862
H     4.736770    -5.462189    -4.279963
H    -3.775065     0.016597     4.931015
O    -4.374626     0.482248     5.563713
H    -5.035556    -0.174620     5.856663
H     3.458826    -5.950558    -0.513865
O     4.330768    -5.713262    -0.839968
H     4.436063    -4.754580    -0.682863
H     4.998350    -0.360317    -4.172907
O     4.467999    -1.077506    -4.559430
H     4.143295    -1.656149    -3.835946
H    -1.168144     1.558982    -3.943482
O    -1.817637     2.180335    -4.329665
H    -1.460060     2.510948    -5.176197
H     4.780232    -6.335208    -2.244161
O     5.083092    -6.631605    -3.136471
H     5.954751    -7.045172    -3.000410
H     9.577599    -5.744024    -2.208784
O     9.165175    -6.131315    -1.429554
H     8.567956    -6.817221    -1.780199
H     2.351606     4.703403     0.439017
O     1.772684     4.687617     1.210363
H     1.414033     3.767775     1.289824
H    -4.411563    -2.635659     4.230197
O    -5.305214    -2.294692     4.028342
H    -5.167445    -1.514204     3.452226
H    -5.845795    -3.196363     1.318015
O    -6.309403    -3.751804     1.987065
H    -6.118971    -3.316309     2.837187
H     1.703265     3.458942     6.851227
O     1.080847     3.975575     6.317715
H     0.298536     4.130020     6.889814
H     5.005264    -2.188448     3.606237
O     5.027398    -1.468578     4.269734
H     4.216326    -0.912322     4.113115
H     2.388413    -5.589666     4.834619
O     2.766779    -6.474415     4.576457
H     2.021173    -7.054675     4.400890
H     2.243220    -4.537268    -6.797656
O     2.077255    -5.022974    -5.980233
H     1.812260    -4.331476    -5.324577
H     6.805760    -4.283917    -0.867664
O     7.330116    -4.577761    -0.091819
H     8.075229    -5.067982    -0.497735
H    -1.706136     4.487179     7.691913
O    -0.806842     4.584307     8.076530
H    -0.624304     5.543133     8.099863
H    -5.109239     5.686315    -5.603343
O    -4.502745     4.921895    -5.623855
H    -3.745814     5.134718    -6.190774
H     3.277653    -2.551078    -8.443401
O     3.192103    -3.084739    -7.642421
H     4.067267    -3.062902    -7.213970
H    -0.642217     8.814413    -2.292056
O    -0.517135     9.643301    -1.774416
H     0.245069     9.467982    -1.197820
H     2.073981    -0.924723     5.203336
O     1.499407    -1.447498     5.791766
H     1.596596    -1.102845     6.688796
H     5.127238    -2.043072    -5.664285
O     5.488589    -2.798737    -6.196138
H     5.194596    -3.608943    -5.703703
H     5.695947    -5.233347     4.677364
O     5.174043    -5.146198     5.504556
H     4.452141    -5.777794     5.419818
H    -3.961589     1.147014     7.002570
O    -3.768009     1.623437     7.845751
H    -4.643224     2.010573     8.107068
H    -1.830911     9.605779    -0.759202
O    -2.691077     9.481191    -0.283886
H    -3.301676     10.110246    -0.671728
H    -5.938713     4.685750    -2.944212
O    -6.847797     4.568144    -3.287786
H    -6.759215     3.864763    -3.964068
H     0.084328    -7.077865    -1.143710
O     0.547708    -7.514273    -0.396237
H    -0.130724    -7.706968     0.253913
H    -7.628549     3.791088    -1.977083
O    -7.890246     3.205313    -1.236242
H    -7.748955     2.296009    -1.574917
H     3.982195    -0.906135     6.976388
O     3.992632     0.058098     6.967010
H     4.805038     0.345730     6.534133
H     2.271365     5.779358    -1.193453
O     3.206907     5.485752    -1.080776
H     3.381342     4.943894    -1.873079
H     6.553826    -5.938336     0.640845
O     6.187871    -6.669518     1.185995
H     5.283301    -6.394845     1.411371
H    -3.849245     4.730788     7.773264
O    -3.284061     4.266617     7.114027
H    -3.478610     3.323534     7.225626
H     5.753765    -7.963521     0.139387
O     5.477722    -8.641338    -0.513453
H     4.645786    -8.320872    -0.904894
H    -0.542658     2.037312     7.684983
O    -1.176925     1.974065     6.950706
H    -2.045074     1.833434     7.348281
H    -6.377527    -0.121181     1.061115
O    -6.699278    -0.204434     0.148665
H    -7.618278    -0.474187     0.168250
H    -5.373586    -3.067010    -0.587530
O    -5.119713    -2.364337     0.037056
H    -5.688713    -1.590823    -0.150739
H     4.331135     5.558914     0.304281
O     4.666994     5.660222     1.208651
H     3.973677     6.171212     1.661926
H    -9.045070    -1.742821    -2.250246
O    -8.495940    -1.541546    -1.465088
H    -8.623741    -2.277409    -0.826519
H    -5.519596     3.464323    -5.532495
O    -6.037777     2.754878    -5.116803
H    -5.371951     2.168660    -4.702863
H     3.178650    -0.912696    -5.662068
O     2.323303    -1.028358    -6.129948
H     2.402138    -1.879394    -6.599694
H     8.054175    -1.277177    -6.123891
O     8.129849    -2.150557    -5.675857
H     7.248317    -2.545876    -5.864581
H     7.617557     0.969963    -6.325924
O     7.427647     0.122433    -6.740526
H     6.445775     0.072617    -6.775881
H    -7.862186    -3.689437     0.933665
O    -8.541009    -3.582084     0.249718
H    -8.444598    -4.342396    -0.351148
H    -2.386975     8.730715     1.280537
O    -2.236447     8.142622     2.033941
H    -1.467422     7.587988     1.810959
H    -4.425537     6.435015     3.488410
O    -4.595860     6.860497     2.631635
H    -3.831618     7.445072     2.490868
H     3.407628     3.424783    -3.590660
O     3.256313     4.394441    -3.499140
H     2.291198     4.460691    -3.604529
H    -6.118027    -1.609379    -3.441915
O    -6.200965    -2.187816    -2.657422
H    -6.983920    -1.879003    -2.148127
H     6.477929     1.030007     4.725708
O     6.085711     1.571315     5.427847
H     6.275739     2.488944     5.135391
H     1.362556     1.703586    -5.832564
O     1.167994     1.109005    -5.077480
H     1.529177     0.244811    -5.346026
H    -2.470487     2.965753     10.476643
O    -2.260177     2.057478     10.204182
H    -2.858682     1.858129     9.472377
H     7.631589    -0.523666     3.070505
O     6.884332     0.056305     3.238214
H     6.190698    -0.542011     3.619064
H    -5.669993    -8.056478    -0.694949
O    -4.934812    -8.126001    -0.049105
H    -4.936358    -7.308189     0.472067
H    -5.178551    -0.125256    -4.717080
O    -5.796785    -0.836237    -4.956176
H    -6.634590    -0.393491    -5.153332
H     1.885606    -0.219388    -7.523871
O     1.684403     0.251290    -8.368342
H     2.257787    -0.156842    -9.022234
H     4.864402    -1.428727    -9.313608
O     3.941367    -1.194586    -9.595293
H     3.918646    -1.310411    -10.544528
H     7.566601    -2.594688     4.188308
O     7.714146    -2.627390     3.228925
H     7.220978    -3.417352     2.953554
H     6.721915    -5.908578     2.667334
O     6.780242    -5.242055     3.378142
H     7.657191    -5.328723     3.792543
H    -1.798184     8.942711     3.483717
O    -1.549047     9.248078     4.381418
H    -2.397145     9.382086     4.837767
H    -7.388830     1.564524    -5.251859
O    -7.964563     0.821461    -5.005750
H    -8.865564     1.222573    -4.929081
H     6.914607    -1.127528    -8.408063
O     6.331077    -1.852017    -8.658256
H     6.097501    -2.283726    -7.818435
H    -1.669211     6.226650    -7.033383
O    -2.067100     5.401640    -6.759059
H    -1.818599     5.271757    -5.795214
H     0.018838     3.308051     9.013451
O     0.214666     2.388326     9.269516
H    -0.583668     2.125823     9.776756
H     6.688457    -2.818418    -2.706225
O     6.262939    -3.658620    -2.415256
H     6.570650    -4.310037    -3.076805
H    -4.084047    -3.081923    -4.943444
O    -4.238620    -2.969631    -5.908317
H    -4.785314    -2.176171    -5.964424
H     1.995899     2.176434     8.454636
O     2.659102     2.287394     7.763723
H     3.079855     1.416325     7.648586
H    -6.914455    -5.202100    -1.390500
O    -7.830840    -5.470122    -1.634892
H    -7.964635    -5.068300    -2.518091
H    -3.808927     5.257338     5.689150
O    -3.775413     6.025200     5.097601
H    -2.840809     6.317909     5.190537
H    -7.883030     0.088755    -1.965210
O    -7.392609     0.811157    -2.380126
H    -7.621878     0.799390    -3.333073
H     5.840089     0.104180     0.399734
O     5.624095     0.830726     1.017468
H     6.132486     0.634220     1.831553
H    -6.198760     3.318315     7.392426
O    -6.071097     2.800832     8.221563
H    -6.672517     2.040267     8.134560
H     2.265196    -8.091966    -0.842143
O     2.940451    -8.077190    -1.539553
H     2.719869    -8.792871    -2.151689
H    -2.754081    -3.973675    -6.197108
O    -1.999475    -4.539273    -5.966878
H    -1.723149    -4.249174    -5.069121
H    -5.628404     3.765519     5.304682
O    -6.276340     4.164002     5.921905
H    -6.110708     5.107674     5.907680
H    -1.029283    -7.126702    -3.162725
O    -0.556472    -6.456070    -2.636225
H     0.352761    -6.390812    -3.014622
H     4.456767     2.002118     5.116375
O     3.515785     2.244651     4.996969
H     3.132123     2.260820     5.879128
H     4.127635     4.644651     6.286249
O     4.209183     5.374128     5.667442
H     3.640216     5.133798     4.897491
H     2.778487     3.605370     3.910840
O     2.602668     4.545635     3.743574
H     2.482208     4.642970     2.777226
H     9.403064     0.181572    -1.076144
O     8.586123     0.334956    -0.599150
H     8.414949    -0.480851    -0.097695
H    -2.077557     5.324413     10.641297
O    -2.800483     4.697445     10.874039
H    -3.017417     4.875857     11.789321
H     7.959739    -3.046554     0.313951
O     8.387329    -2.195360     0.562317
H     8.330422    -2.187955     1.524712
H     5.383817     3.647575     3.510390
O     6.042246     3.913937     4.173961
H     5.630695     4.631834     4.676851
H    -4.187110     5.029205     9.777799
O    -4.820824     5.180505     9.056393
H    -5.433757     4.432751     9.055260
H    -7.016752    -3.480208    -3.481465
O    -7.638869    -4.091129    -3.928910
H    -7.119250    -4.535061    -4.630959
H     0.052397     6.128891     10.758615
O    -0.811713     6.461989     10.511960
H    -0.695961     6.891153     9.644948
H     2.591508     1.476803    -4.115192
O     3.472409     1.825590    -3.879920
H     3.790099     1.312541    -3.106469
H    -6.962171    -0.209376     7.220572
O    -7.469281     0.570242     7.500571
H    -8.092765     0.753907     6.796807
H    -2.756604    -9.880498    -0.823436
O    -2.693012    -8.939192    -0.985076
H    -3.597829    -8.571203    -0.743304
H    -10.064473     3.078384    -4.897521
O    -10.182901     2.161391    -4.615843
H    -10.397471     2.246702    -3.665940
H    -2.064560    -3.027197     4.612903
O    -2.940726    -3.464936     4.683707
H    -2.936175    -4.084088     3.928490
H    -0.184775    -7.991492     2.486320
O     0.641567    -7.781329     2.934226
H     1.360020    -8.078419     2.347939
H     6.709239    -2.393351     6.383389
O     7.159219    -3.103003     5.920304
H     6.529166    -3.837730     5.879989
H    -5.265222    -1.997280     6.944778
O    -5.941273    -1.498539     6.461117
H    -5.926540    -1.876518     5.552297
H     0.838257     3.014048    -7.124113
O     1.755332     2.681467    -7.182009
H     1.738251     1.933698    -7.807138
H    -3.928854     8.760431     6.661421
O    -3.928051     8.757184     5.704050
H    -4.055087     7.829491     5.437603
H    -2.040279     10.304339    -2.752051
O    -2.941916     10.487101    -3.053217
H    -2.869920     11.120305    -3.766751
H     9.410135    -4.089171     4.030137
O     9.132313    -4.761759     4.659490
H     8.703526    -4.284419     5.380565
H    -0.747314    -6.011109    -5.841217
O    -0.046301    -6.580359    -5.507351
H     0.791285    -6.123095    -5.724056
H     1.844440     8.261942     0.647755
O     1.540907     8.583431    -0.229910
H     2.355115     8.619463    -0.761155
H     3.500998     2.904611    -6.675699
O     4.327980     2.610316    -6.267861
H     4.083022     2.341427    -5.357224
H     3.748256     7.106270    -1.247607
O     3.955852     8.041305    -1.462495
H     4.323559     7.983622    -2.356259
H     4.389407    -0.033380    -7.922770
O     4.771178     0.110913    -7.055012
H     4.589078     1.042835    -6.809255
H     6.036829     1.909243    -0.490590
O     6.601367     2.101112    -1.253677
H     7.425116     1.621067    -1.059510
H     6.645113    -8.430903    -1.555006
O     7.276129    -8.108229    -2.258612
H     7.523856    -8.898465    -2.746267
H    -5.313764    -5.795159    -5.402281
O    -5.929961    -5.122392    -5.717382
H    -5.377621    -4.355462    -5.955368
H     0.706942     7.169807     7.586625
O    -0.194137     7.199781     7.947101
H    -0.750535     7.214242     7.130240
H    -8.903264    -2.832423    -4.096251
O    -9.422120    -2.022743    -3.929352
H    -9.135407    -1.359180    -4.560562
H    -2.419332    -5.996950    -2.140930
O    -3.296931    -5.708611    -2.409430
H    -3.485994    -6.084866    -3.293971
H    -2.998250    -5.911619    -5.406855
O    -3.599483    -6.518994    -4.933726
H    -3.119291    -7.340017    -4.765123
H    -1.386773     3.712156    -6.991097
O    -0.847117     2.955485    -6.721289
H    -1.087776     2.170351    -7.269379
H    -0.209677     0.398392    -8.222598
O    -1.104727     0.635678    -7.938266
H    -1.280016     0.113476    -7.139357
H    -10.414916     4.058893    -2.733808
O    -10.483216     3.280857    -2.164939
H    -9.653344     3.253344    -1.656907
H     4.593529     4.063013     1.704970
O     4.382902     3.142773     1.983663
H     5.097717     2.564849     1.703815
H     6.489401     1.366716    -4.232146
O     6.187885     0.741679    -3.538745
H     6.216841     1.238171    -2.695261
H     9.476655    -2.212930    -0.900431
O     9.815034    -1.978199    -1.783357
H     9.029651    -1.604823    -2.238218
H     9.941870    -3.241181    -3.064043
O     9.885721    -3.828406    -3.854885
H     9.741316    -3.219201    -4.591789
H    -7.711968    -8.573047    -1.655161
O    -6.973452    -7.980007    -1.785625
H    -7.349514    -7.066369    -1.775841
H     4.170822     6.058857    -3.837850
O     4.833515     6.758916    -3.755661
H     5.668954     6.303928    -3.617191
H     0.079874    -8.187578    -5.213237
O     0.099197    -9.170364    -5.081639
H     0.253173    -9.534585    -5.953363
H    -2.347524    -8.682716    -2.710605
O    -2.115550    -8.420097    -3.620988
H    -1.470318    -9.039710    -3.980294
H     2.164936    -10.836126    -3.493215
O     2.112486    -9.882066    -3.466919
H     1.324882    -9.613708    -3.990274
H     6.840770     3.300358    -4.591034
O     6.896531     2.621877    -5.292104
H     6.102426     2.757582    -5.831338
H    -3.558852    -3.718378     7.722319
O    -3.673025    -2.931087     7.191466
H    -3.422712    -3.171436     6.273173
H    -0.647147    -3.378499    -6.725984
O    -0.015413    -2.648084    -6.736060
H    -0.495786    -1.871675    -6.394243
H     0.654879     0.459002     8.745581
O     0.660705    -0.256238     8.105547
H    -0.261898    -0.544182     8.019082
H    -5.822084     7.364128    -4.259413
O    -6.326551     6.745529    -4.819339
H    -6.614295     6.015760    -4.227016
H    -4.262534     9.097703    -3.274631
O    -4.799337     8.302474    -3.167176
H    -4.391183     7.823112    -2.428004
H    -9.702760     5.799793    -4.648186
O    -10.237254     4.996167    -4.483302
H    -11.117988     5.198265    -4.800974
H     2.790352     6.506810     6.124084
O     1.830519     6.605304     6.222643
H     1.485257     5.692326     6.122063
H     4.822506     8.528423     0.063610
O     5.141494     8.530000     0.983943
H     5.546085     7.664740     1.115834
H     4.008185    -7.545511    -4.225020
O     3.295964    -7.786610    -4.851024
H     2.937127    -8.593748    -4.453285
H     0.400552     8.653309     4.218489
O     1.077120     8.007533     3.990218
H     1.303559     7.514913     4.805094
H     5.243170     4.168890    -3.174068
O     6.204678     4.134394    -3.124102
H     6.412623     3.555088    -2.374273
H    -2.568878    -1.542428     7.571239
O    -2.057315    -0.749594     7.789852
H    -2.681772    -0.122169     8.164268
H    -9.014823     7.939011    -4.151419
O    -8.953350     7.353625    -4.907727
H    -7.996691     7.187760    -5.043631
H     3.518825    -8.994973     1.087194
O     2.844200    -8.362694     1.340136
H     3.321620    -7.557280     1.616458
H     3.604173     8.157592     1.810951
O     2.812819     7.595597     1.924122
H     2.367745     7.832526     2.750568
N     7.591906    -5.232988    -4.218492
H     7.421571    -5.228798    -5.164050
H     8.445908    -4.749323    -4.100840
