603

H     0.185977     3.050532    -0.676780
O     0.708174     2.385167    -1.174659
H     1.647764     2.514690    -0.904498
H    -0.067187    -1.304541     3.135138
O     0.321722    -0.601280     2.592466
H    -0.156722     0.210299     2.830869
H    -2.411522     2.424707    -0.526306
O    -2.196520     1.950828     0.294678
H    -2.212357     1.003943     0.065479
H    -4.661288     0.545400     2.192651
O    -4.976476    -0.388662     2.203166
H    -4.473886    -0.862356     1.532262
H     0.062097    -0.296405     0.939742
O    -0.139195    -0.056320     0.014596
H     0.197343     0.841700    -0.103462
H    -0.138842    -3.577696     3.752765
O    -0.417396    -2.749875     4.177913
H     0.231200    -2.581184     4.877862
H    -4.891943     2.532177     1.350377
O    -4.249166     2.121134     1.960721
H    -3.408613     2.107174     1.444232
H    -3.271186     3.917944    -2.192239
O    -2.531523     3.321393    -1.966806
H    -2.176194     3.037858    -2.829282
H    -0.122903    -3.791071     0.476890
O     0.217560    -2.974930     0.897005
H    -0.569394    -2.491079     1.213946
H    -2.371503    -1.537392     2.461957
O    -2.184875    -1.999498     1.618382
H    -2.447429    -1.409889     0.892322
H     2.063864    -1.418935    -1.146509
O     2.300292    -1.675620    -0.231264
H     1.513282    -2.105903     0.154202
H    -1.393119     1.829720     1.914731
O    -1.480108     1.428073     2.789450
H    -1.464387     2.137535     3.457451
H     0.200112    -2.680066    -1.593100
O    -0.556798    -2.069617    -1.641778
H    -0.376095    -1.345477    -1.005747
H    -3.440023    -2.913852    -0.400581
O    -2.723244    -3.402938    -0.825656
H    -2.015479    -2.769878    -1.044767
H     2.777288     0.136710     2.912263
O     2.881163    -0.049894     3.872666
H     2.972181     0.841399     4.280917
H    -3.549635     6.392395    -0.511652
O    -3.315157     7.058559    -1.209748
H    -3.173045     7.901795    -0.736255
H     3.898703     0.601432     1.161651
O     2.949089     0.417245     1.280884
H     2.710666    -0.332846     0.698981
H    -5.796216     0.855610    -1.588212
O    -4.885843     1.183846    -1.463891
H    -4.996240     2.009922    -0.948454
H    -1.219225     5.401426     2.227921
O    -1.843165     4.653556     2.110574
H    -1.916816     4.231041     2.971564
H     3.483301     2.783066     0.412330
O     3.232098     2.744121    -0.526111
H     3.564160     1.903461    -0.881567
H     1.483105    -4.668496    -2.288245
O     1.549119    -3.894000    -1.711545
H     2.340769    -3.429394    -2.064307
H    -0.939230    -0.059504    -2.555791
O    -0.306921     0.595052    -2.879284
H    -0.045079     1.174995    -2.141056
H     1.699809    -4.665917    -0.217444
O     1.811410    -5.306216     0.521740
H     1.347687    -6.116672     0.224198
H    -1.239754    -3.239117    -2.900018
O    -1.067521    -3.919567    -3.564066
H    -0.938062    -4.768182    -3.099188
H    -2.774108     3.299373     4.719467
O    -1.792982     3.298697     4.681494
H    -1.496079     2.893681     5.514721
H     0.962803     5.034472     4.083112
O     0.016574     5.264784     4.140351
H    -0.452965     4.459604     4.396440
H    -1.730439    -4.636022    -0.395583
O    -0.963249    -5.176852    -0.116102
H    -1.307494    -5.866659     0.460607
H    -3.945635     5.852706    -2.567621
O    -4.296413     5.019426    -2.899377
H    -4.145560     4.988968    -3.868412
H    -2.423145    -3.685977     1.919047
O    -2.438348    -4.591863     2.291001
H    -1.497620    -4.828817     2.426672
H    -4.709271    -2.959364    -2.903219
O    -3.858131    -3.188916    -3.313877
H    -3.523883    -3.983999    -2.853571
H     0.348815     1.373419     4.608556
O     0.852453     2.135713     4.276203
H     0.902618     2.791832     4.985615
H    -4.659546    -5.155405    -1.585285
O    -5.359604    -4.805810    -1.007027
H    -5.142099    -5.163600    -0.125342
H     2.313718    -6.443604    -4.089018
O     1.980723    -6.119371    -3.232242
H     2.418383    -6.695738    -2.573512
H     0.449136    -3.344626    -4.033267
O     1.249783    -2.974589    -4.457407
H     0.926386    -2.600408    -5.303595
H     1.972299    -1.746646     2.955146
O     2.128491    -2.676260     2.733028
H     1.440026    -2.888191     2.068090
H    -3.032340    -1.784248    -3.215965
O    -2.611644    -0.897288    -3.148168
H    -3.269318    -0.251480    -3.463016
H    -3.201934     4.981316     1.103840
O    -3.986162     5.355423     0.654316
H    -4.399407     5.909373     1.364626
H     0.875575     2.259747     2.586402
O     0.972526     2.259605     1.614777
H     1.699813     1.638404     1.444751
H     0.169908     5.676491    -0.745323
O     0.688508     6.341512    -1.253204
H     0.831071     7.139212    -0.694614
H     0.334377     7.041342     2.609273
O    -0.030555     6.663804     1.791792
H     0.633467     5.995523     1.524558
H    -2.473803     0.212356     3.341282
O    -2.691944    -0.604308     3.843576
H    -1.928721    -0.645086     4.461879
H    -0.877065     0.542000     6.020462
O    -0.605339     0.026460     5.242606
H     0.110352    -0.577032     5.523639
H     0.719635    -4.985695     1.944365
O     0.181254    -5.099740     2.750788
H     0.328452    -6.021333     3.018132
H    -2.109852    -8.077848     0.410593
O    -1.784937    -7.592997     1.196708
H    -2.569864    -7.284815     1.657189
H    -0.408565     6.889405    -2.304688
O    -1.157808     7.310545    -2.798571
H    -1.945216     7.179911    -2.232326
H    -1.126065     4.321197     0.586344
O    -0.756982     4.386965    -0.310988
H    -1.465771     4.146377    -0.941549
H    -4.406883     2.740328     3.526501
O    -4.401619     2.906458     4.491842
H    -4.481690     2.021450     4.897337
H     2.040754    -3.581436     4.208997
O     1.981883    -4.057821     5.060273
H     2.490071    -3.522711     5.691319
H     4.689313    -3.174567     0.794362
O     4.525073    -3.094767    -0.171232
H     3.664730    -2.618806    -0.248936
H    -2.734496    -0.730984    -1.354668
O    -3.058525    -0.465593    -0.477500
H    -3.860830     0.059699    -0.678707
H    -1.642037    -0.727224    -4.638506
O    -1.139065    -0.506913    -5.443556
H    -0.428984     0.089615    -5.159267
H     1.775681    -1.680961    -3.403661
O     1.870224    -0.937002    -2.777219
H     1.091304    -0.360455    -2.902190
H     3.671819    -3.111128     2.510422
O     4.630948    -3.338341     2.431983
H     4.687599    -4.298912     2.554652
H     3.442540    -6.113472     3.070806
O     3.794152    -5.908194     2.169949
H     3.053718    -5.561389     1.631701
H    -3.371380     1.639641    -4.167777
O    -4.214757     1.166745    -3.975479
H    -4.428426     1.307852    -3.017347
H    -5.096968     4.154512     0.095013
O    -5.534494     3.288122    -0.009793
H    -6.466223     3.406834    -0.287457
H     6.723155    -1.149517    -1.406586
O     5.952708    -1.003509    -0.851500
H     5.535654    -1.872712    -0.655852
H     4.580893    -3.134869    -2.514992
O     3.711550    -2.962609    -2.927153
H     3.711757    -3.578005    -3.685873
H     4.455234    -2.294933     5.581734
O     4.116789    -2.764514     6.374388
H     4.452658    -3.668680     6.287194
H    -0.751017     6.330355     5.095081
O    -1.346331     6.902819     5.638273
H    -1.363309     7.781730     5.200586
H     4.684629    -0.106811    -1.497617
O     3.915658     0.435571    -1.755436
H     3.222303    -0.164488    -2.084875
H    -0.775036     4.555753    -4.025391
O    -1.559615     5.098347    -4.227255
H    -1.407635     5.963534    -3.802087
H     0.635128     3.232309    -2.658048
O     0.638500     3.613200    -3.564762
H     0.683977     2.852519    -4.154075
H    -5.374618    -5.194532     1.783116
O    -4.678439    -5.786714     1.422607
H    -3.837512    -5.370364     1.691254
H     7.860292    -1.642996    -4.085083
O     7.605336    -1.334385    -3.183892
H     7.115639    -0.490692    -3.334024
H     3.678384    -5.024261    -5.340578
O     4.445331    -4.653254    -4.863528
H     4.830974    -5.365909    -4.320783
H    -3.771038     0.006279     4.939707
O    -4.369633     0.466516     5.577156
H    -5.027614    -0.193896     5.868759
H     3.464732    -5.918655    -0.571717
O     4.335613    -5.668469    -0.892356
H     4.410566    -4.706678    -0.744436
H     4.975790    -0.293681    -4.193605
O     4.443303    -1.005920    -4.585759
H     4.117605    -1.591353    -3.869206
H    -1.199637     1.602917    -3.936327
O    -1.852732     2.224489    -4.315710
H    -1.499927     2.559882    -5.162780
H     4.877721    -6.287649    -2.375410
O     5.208508    -6.607114    -3.243944
H     6.026893    -7.089151    -3.062078
H     8.728792    -5.050060    -2.988834
O     8.040134    -5.470747    -2.429918
H     8.075617    -6.427760    -2.535163
H     2.324191     4.737493     0.450903
O     1.748691     4.715159     1.224752
H     1.392881     3.794027     1.299858
H    -4.400729    -2.644236     4.227655
O    -5.296148    -2.305346     4.030701
H    -5.163105    -1.521585     3.457817
H    -5.842926    -3.195363     1.317357
O    -6.301764    -3.756114     1.985378
H    -6.110460    -3.323897     2.836928
H     1.702020     3.457780     6.859236
O     1.075900     3.974476     6.330254
H     0.295132     4.123838     6.905865
H     5.011999    -2.160669     3.574106
O     5.034395    -1.445165     4.241096
H     4.220792    -0.889607     4.090531
H     2.412928    -5.577754     4.792755
O     2.793304    -6.459877     4.527311
H     2.048404    -7.041835     4.354058
H     2.225934    -4.469122    -6.829802
O     2.064205    -4.961242    -6.014056
H     1.799137    -4.272309    -5.356610
H     6.435978    -4.074978    -0.559152
O     7.192502    -4.478156    -0.101478
H     7.697080    -4.897187    -0.826177
H    -1.707747     4.469755     7.716746
O    -0.807391     4.567892     8.098690
H    -0.628106     5.527277     8.126324
H    -5.160279     5.725034    -5.561136
O    -4.551469     4.962740    -5.586746
H    -3.797106     5.180544    -6.155370
H     3.206364    -2.506712    -8.424556
O     3.129146    -3.009668    -7.595614
H     4.014756    -2.959632    -7.192098
H    -0.693065     8.851563    -2.248602
O    -0.569097     9.678174    -1.726916
H     0.195949     9.502624    -1.154237
H     2.082197    -0.915471     5.187672
O     1.513172    -1.445154     5.775332
H     1.609990    -1.103282     6.673555
H     5.176369    -1.975208    -5.734383
O     5.526477    -2.737841    -6.260225
H     5.250946    -3.531450    -5.748002
H     5.715857    -5.209871     4.627874
O     5.197356    -5.129452     5.457309
H     4.476387    -5.762146     5.372241
H    -3.954174     1.125406     7.017912
O    -3.759237     1.597971     7.862936
H    -4.634886     1.980961     8.129132
H    -1.879003     9.630864    -0.707733
O    -2.737040     9.501093    -0.229827
H    -3.351146     10.129745    -0.612788
H    -5.977191     4.708117    -2.904081
O    -6.887179     4.588802    -3.244692
H    -6.798345     3.889448    -3.925175
H     0.093525    -7.043616    -1.185182
O     0.561836    -7.481861    -0.441286
H    -0.114301    -7.680637     0.209564
H    -7.660588     3.802731    -1.935657
O    -7.917730     3.212271    -1.196846
H    -7.774619     2.305241    -1.540842
H     3.996809    -0.899842     6.954354
O     4.003837     0.064354     6.949461
H     4.813669     0.357539     6.515461
H     2.235062     5.821033    -1.175614
O     3.171714     5.529541    -1.066902
H     3.345499     4.993079    -1.863217
H     6.554818    -5.906077     0.607481
O     6.189886    -6.645499     1.139270
H     5.285933    -6.370897     1.371650
H    -3.851381     4.705628     7.806506
O    -3.286674     4.246601     7.143240
H    -3.478132     3.302400     7.250398
H     5.768161    -7.920854     0.067784
O     5.479491    -8.605373    -0.572194
H     4.647203    -8.280401    -0.960439
H    -0.536202     2.024222     7.693370
O    -1.172508     1.961602     6.960801
H    -2.039031     1.816848     7.360517
H    -6.386425    -0.120489     1.078584
O    -6.710343    -0.200935     0.166745
H    -7.628573    -0.473246     0.187446
H    -5.377662    -3.054303    -0.589125
O    -5.124020    -2.354459     0.038728
H    -5.696058    -1.581705    -0.143231
H     4.300822     5.599791     0.314065
O     4.638797     5.697164     1.218142
H     3.945431     6.204248     1.675758
H    -9.059167    -1.734434    -2.232385
O    -8.508382    -1.535279    -1.447776
H    -8.631487    -2.274936    -0.812804
H    -5.562955     3.501099    -5.499976
O    -6.077235     2.788020    -5.085553
H    -5.407724     2.201872    -4.677550
H     3.148426    -0.844641    -5.683307
O     2.290984    -0.963351    -6.145086
H     2.374711    -1.810087    -6.624406
H     8.081485    -1.292851    -6.079098
O     8.096029    -2.161051    -5.631072
H     7.236798    -2.560304    -5.872929
H     7.583101     1.043778    -6.352498
O     7.391350     0.197450    -6.768701
H     6.409112     0.151111    -6.800035
H    -7.858722    -3.693650     0.937562
O    -8.540417    -3.585143     0.256722
H    -8.443403    -4.341754    -0.348707
H    -2.425229     8.743596     1.329381
O    -2.269933     8.152296     2.079356
H    -1.499918     7.601400     1.850692
H    -4.448098     6.429774     3.532435
O    -4.622902     6.859043     2.678505
H    -3.861141     7.446895     2.537887
H     3.370715     3.483036    -3.588728
O     3.216475     4.451624    -3.490319
H     2.250982     4.515134    -3.593713
H    -6.136522    -1.585210    -3.433169
O    -6.215085    -2.167810    -2.651156
H    -6.997336    -1.863956    -2.137932
H     6.478082     1.056946     4.704669
O     6.086411     1.591953     5.411748
H     6.271011     2.512274     5.123616
H     1.324292     1.764849    -5.832706
O     1.135721     1.165951    -5.079014
H     1.497778     0.304213    -5.355412
H    -2.457359     2.931533     10.496199
O    -2.244789     2.025427     10.218245
H    -2.845276     1.827810     9.487582
H     7.633057    -0.482326     3.037393
O     6.882795     0.091479     3.211340
H     6.193072    -0.511352     3.591599
H    -5.657252    -8.044515    -0.720960
O    -4.919434    -8.114697    -0.078061
H    -4.922300    -7.299537     0.447242
H    -5.206543    -0.091363    -4.704062
O    -5.823599    -0.803264    -4.943521
H    -6.663234    -0.362228    -5.136597
H     1.847271    -0.148286    -7.537726
O     1.642436     0.331049    -8.375583
H     2.208478    -0.074938    -9.038532
H     4.726560    -1.225941    -9.313743
O     3.807919    -1.158077    -9.647718
H     3.881673    -1.569076    -10.516285
H     7.577735    -2.559509     4.144998
O     7.720752    -2.591703     3.184778
H     7.227151    -3.382107     2.912026
H     6.733597    -5.879130     2.619908
O     6.797346    -5.206461     3.323220
H     7.675071    -5.291827     3.737135
H    -1.829456     8.946394     3.531568
O    -1.578406     9.247755     4.430132
H    -2.425466     9.376872     4.889784
H    -7.424531     1.593610    -5.222532
O    -7.996977     0.847518    -4.977803
H    -8.899064     1.245170    -4.896461
H     6.960085    -1.038967    -8.342586
O     6.360698    -1.743973    -8.625794
H     6.105714    -2.173502    -7.786642
H    -1.726536     6.284046    -7.000050
O    -2.122749     5.457596    -6.727666
H    -1.869203     5.322679    -5.766102
H     0.025718     3.289822     9.026224
O     0.225515     2.369397     9.276807
H    -0.570235     2.101776     9.785517
H     6.740323    -2.741202    -2.756561
O     6.212551    -3.487866    -2.417199
H     6.681401    -4.297047    -2.668199
H    -4.102949    -3.042662    -4.949183
O    -4.261630    -2.926585    -5.912777
H    -4.810213    -2.134127    -5.963706
H     2.004488     2.168354     8.454970
O     2.665138     2.284722     7.762477
H     3.088282     1.415679     7.641678
H    -6.913976    -5.190767    -1.397600
O    -7.830124    -5.460962    -1.640248
H    -7.968245    -5.054949    -2.520970
H    -3.820038     5.242812     5.725083
O    -3.791194     6.013770     5.137390
H    -2.857332     6.309365     5.228557
H    -7.902577     0.099526    -1.942045
O    -7.415916     0.825756    -2.354622
H    -7.648218     0.818245    -3.306965
H     5.830125     0.154419     0.376415
O     5.610089     0.873321     1.000887
H     6.123847     0.675661     1.811005
H    -6.197211     3.287011     7.426573
O    -6.064875     2.765563     8.252517
H    -6.664232     2.003585     8.163649
H     2.278975    -8.049832    -0.896900
O     2.953256    -8.033690    -1.595749
H     2.726334    -8.745321    -2.211000
H    -2.773966    -3.924179    -6.212370
O    -2.019321    -4.490938    -5.985272
H    -1.738866    -4.201475    -5.088823
H    -5.635719     3.746912     5.338991
O    -6.282604     4.139809     5.960847
H    -6.120844     5.084203     5.950383
H    -1.029479    -7.086396    -3.198552
O    -0.555425    -6.418449    -2.669413
H     0.349700    -6.345366    -3.054941
H     4.454646     2.019401     5.107569
O     3.512142     2.257617     4.992483
H     3.131596     2.269654     5.876067
H     4.120190     4.654738     6.292008
O     4.197564     5.387391     5.676451
H     3.626701     5.149251     4.907177
H     2.766907     3.622604     3.915346
O     2.587334     4.563117     3.754023
H     2.463122     4.665411     2.788559
H     9.380253     0.247473    -1.120997
O     8.575222     0.406538    -0.624724
H     8.403045    -0.414063    -0.133238
H    -2.072125     5.290604     10.671536
O    -2.791943     4.659801     10.903582
H    -3.006723     4.833185     11.820339
H     7.970433    -2.981063     0.269904
O     8.391849    -2.134902     0.526283
H     8.329801    -2.133638     1.488900
H     5.371135     3.676053     3.506378
O     6.029975     3.939818     4.170719
H     5.618186     4.654940     4.677388
H    -4.183579     4.992534     9.813736
O    -4.820144     5.145349     9.095182
H    -5.430671     4.395637     9.092300
H    -7.029308    -3.458564    -3.479287
O    -7.650751    -4.069804    -3.927231
H    -7.132036    -4.508006    -4.633635
H     0.055521     6.102050     10.785632
O    -0.810697     6.433112     10.543693
H    -0.699568     6.867222     9.678529
H     2.559459     1.533905    -4.121983
O     3.438879     1.886256    -3.885233
H     3.762112     1.369245    -3.117419
H    -6.949518    -0.242274     7.238977
O    -7.458203     0.534180     7.524786
H    -8.084675     0.719489     6.824107
H    -2.739188    -9.857768    -0.868478
O    -2.678088    -8.915386    -1.024688
H    -3.583571    -8.551286    -0.778745
H    -10.104208     3.096456    -4.851331
O    -10.218731     2.177714    -4.573763
H    -10.430202     2.257589    -3.622717
H    -2.051453    -3.029528     4.600393
O    -2.925225    -3.471505     4.672275
H    -2.921567    -4.086059     3.913310
H    -0.163272    -7.976039     2.443268
O     0.664835    -7.766345     2.888362
H     1.380857    -8.058578     2.297014
H     6.729190    -2.373993     6.342747
O     7.177577    -3.081298     5.874412
H     6.548455    -3.816870     5.836091
H    -5.247350    -2.022871     6.948413
O    -5.926696    -1.524025     6.469571
H    -5.913823    -1.897214     5.558740
H     0.792139     3.079801    -7.116839
O     1.709693     2.749850    -7.176493
H     1.694611     2.005328    -7.806622
H    -3.948927     8.740398     6.715658
O    -3.951175     8.742180     5.758291
H    -4.076085     7.815535     5.487303
H    -2.097595     10.338876    -2.696508
O    -3.000988     10.520409    -2.993099
H    -2.933698     11.156789    -3.704280
H     9.425930    -4.045493     3.976120
O     9.150292    -4.726799     4.597049
H     8.722960    -4.258301     5.324993
H    -0.759301    -5.958129    -5.872129
O    -0.053237    -6.524267    -5.543430
H     0.780382    -6.060319    -5.764111
H     1.805982     8.292618     0.679715
O     1.498257     8.617647    -0.195082
H     2.310359     8.658954    -0.729223
H     3.456056     2.976960    -6.677633
O     4.285584     2.686240    -6.272062
H     4.043555     2.410862    -5.362843
H     3.707047     7.153024    -1.227871
O     3.910699     8.089905    -1.438360
H     4.275572     8.038025    -2.333707
H     4.340085     0.058837    -7.942149
O     4.734157     0.193310    -7.078702
H     4.551411     1.122238    -6.822511
H     6.016063     1.961932    -0.505095
O     6.577753     2.158525    -1.268716
H     7.403998     1.679876    -1.079796
H     6.681767    -8.396604    -1.681474
O     7.314408    -8.182449    -2.420152
H     7.680987    -9.015359    -2.712005
H    -5.324852    -5.757815    -5.417770
O    -5.944722    -5.085556    -5.726616
H    -5.395899    -4.315575    -5.963174
H     0.695437     7.161248     7.616963
O    -0.204511     7.185881     7.980642
H    -0.763705     7.202911     7.165694
H    -8.920009    -2.814321    -4.084290
O    -9.441052    -2.007363    -3.911160
H    -9.158950    -1.339504    -4.539933
H    -2.418647    -5.966341    -2.167523
O    -3.298578    -5.680624    -2.430796
H    -3.489053    -6.051596    -3.317506
H    -3.010438    -5.865198    -5.430320
O    -3.606856    -6.478145    -4.957489
H    -3.122711    -7.298306    -4.797147
H    -1.436981     3.769269    -6.972393
O    -0.894335     3.013945    -6.705493
H    -1.130675     2.230271    -7.258318
H    -0.249445     0.468946    -8.224789
O    -1.144319     0.701799    -7.934727
H    -1.315166     0.173051    -7.139447
H    -10.450627     4.064712    -2.681568
O    -10.514357     3.283849    -2.116018
H    -9.682434     3.256581    -1.611361
H     4.572060     4.098239     1.706408
O     4.366892     3.175730     1.982268
H     5.082329     2.602278     1.695027
H     6.455242     1.443704    -4.252889
O     6.157818     0.815112    -3.560415
H     6.190225     1.307223    -2.714579
H     9.623573    -2.190026    -0.991407
O     9.895393    -1.972891    -1.892062
H     9.092778    -1.631936    -2.329547
H     9.951753    -3.276102    -3.165601
O     9.683775    -3.924596    -3.843770
H     9.285528    -3.413372    -4.558793
H    -7.701047    -8.562923    -1.676972
O    -6.964646    -7.966927    -1.805867
H    -7.343690    -7.054519    -1.790907
H     4.124319     6.120700    -3.825252
O     4.784797     6.822529    -3.740186
H     5.622356     6.369369    -3.608678
H     0.078984    -8.131431    -5.259835
O     0.105470    -9.114950    -5.131782
H     0.251603    -9.474961    -6.006642
H    -2.339540    -8.649109    -2.750969
O    -2.110134    -8.381235    -3.660419
H    -1.464177    -8.997132    -4.024721
H     2.176015    -10.781428    -3.559493
O     2.129375    -9.827001    -3.531791
H     1.341134    -9.555132    -4.053414
H     6.800681     3.376449    -4.602946
O     6.856555     2.700881    -5.306657
H     6.060232     2.835696    -5.842996
H    -3.532807    -3.742159     7.711318
O    -3.650702    -2.952354     7.185052
H    -3.403262    -3.187194     6.264604
H    -0.671200    -3.318594    -6.746703
O    -0.041574    -2.586823    -6.750509
H    -0.523654    -1.812790    -6.406539
H     0.670910     0.444355     8.741136
O     0.676803    -0.268064     8.097894
H    -0.245385    -0.558009     8.013157
H    -5.874544     7.393513    -4.205556
O    -6.379124     6.776222    -4.766784
H    -6.661903     6.042210    -4.177406
H    -4.317477     9.127307    -3.217494
O    -4.851488     8.329971    -3.111761
H    -4.438717     7.847986    -2.376909
H    -9.751003     5.817788    -4.589061
O    -10.282343     5.011632    -4.426199
H    -11.164557     5.212137    -4.740754
H     2.776262     6.513012     6.143815
O     1.816491     6.607493     6.246581
H     1.473903     5.694033     6.141917
H     4.780622     8.572472     0.086793
O     5.102570     8.570287     1.006160
H     5.511118     7.705982     1.131843
H     4.126871    -7.384254    -4.400913
O     3.367808    -7.668423    -4.942028
H     3.089323    -8.510831    -4.567828
H     0.372481     8.660904     4.257285
O     1.050517     8.018593     4.023629
H     1.281305     7.522733     4.835236
H     5.205103     4.230492    -3.174970
O     6.166881     4.200584    -3.127413
H     6.379794     3.617661    -2.381892
H    -2.550420    -1.561856     7.568121
O    -2.040416    -0.768685     7.789152
H    -2.665621    -0.144966     8.168558
H    -9.068614     7.956903    -4.083946
O    -9.007968     7.375381    -4.843288
H    -8.051204     7.213453    -4.983457
H     3.541046    -8.961322     1.028004
O     2.864377    -8.331686     1.282091
H     3.338601    -7.526594     1.563382
H     3.569823     8.188322     1.836153
O     2.781033     7.622740     1.949805
H     2.337883     7.854520     2.778702
N     5.446976    -3.027700    -11.080526
H     6.047894    -2.786789    -10.358695
H     6.020662    -3.251403    -11.817775
