27

H    -4.573202    -5.181918    -1.599733
O    -5.317831    -4.888307    -1.037267
H    -5.035051    -5.184661    -0.145504
H    -5.289020    -5.170206     1.821575
O    -4.609189    -5.786754     1.470713
H    -3.766600    -5.354227     1.733443
H    -5.782204    -3.160237     1.280965
O    -6.288195    -3.692041     1.945947
H    -6.076687    -3.247478     2.794462
H    -9.043293    -1.762077    -2.398245
O    -8.533873    -1.541381    -1.588531
H    -8.661198    -2.252348    -0.925826
H    -7.909318    -3.582997     0.922269
O    -8.614574    -3.563347     0.249556
H    -8.349493    -4.232039    -0.413068
H    -5.656161    -8.244845    -0.452919
O    -4.848612    -8.277633     0.109093
H    -4.803228    -7.411865     0.542746
H    -6.899308    -5.299796    -1.501602
O    -7.850587    -5.453839    -1.730651
H    -7.942982    -5.017800    -2.609021
H    -7.849578    -8.128033    -0.507216
O    -7.203944    -8.248853    -1.224154
H    -7.350736    -7.445542    -1.748694
N    -9.242814    -6.988574     0.372941
H    -9.209321    -6.454683     1.173391
H    -9.105168    -6.343006    -0.336482
