30

H     4.314584    -2.352554     5.701049
O     3.985027    -2.907569     6.440146
H     4.398261    -3.774248     6.264791
H     4.905132    -2.149633     3.612360
O     4.929900    -1.433235     4.280426
H     4.103008    -0.893489     4.115619
H     3.571780    -1.149735     7.514962
O     3.773289    -0.206230     7.455931
H     4.739937    -0.194845     7.351374
H     6.709629     1.183670     4.472442
O     6.372390     1.698811     5.238574
H     6.458999     2.639323     4.949875
H     7.461575    -0.665327     2.948242
O     6.825723     0.018132     3.201750
H     6.084511    -0.527029     3.587804
H     7.644110    -2.617184     4.170067
O     7.815021    -2.670683     3.208025
H     7.296936    -3.454382     2.952100
H     1.842154     2.273958     8.523904
O     2.593897     2.267371     7.910958
H     2.863269     1.329220     7.857522
H     4.505595     2.002192     5.139504
O     3.569119     2.250361     5.054150
H     3.177911     2.168607     5.934385
H     7.029871    -2.058352     6.321116
O     7.333093    -2.906553     5.950765
H     6.579829    -3.505176     6.018463
N     6.621078    -0.282430     7.051205
H     6.672746     0.521458     6.479868
H     7.155513    -0.081273     7.824534
