21

H     4.315726    -2.392510     5.544383
O     4.001665    -2.847894     6.355146
H     4.408200    -3.726553     6.274093
H     5.538519    -5.444675     4.750885
O     5.045103    -5.426273     5.612608
H     4.294588    -6.024485     5.479399
H     7.671705    -2.378091     4.269865
O     7.871412    -2.637775     3.341024
H     7.199734    -3.305126     3.129475
H     6.543790    -5.969210     2.706089
O     6.595938    -5.315732     3.434750
H     7.505728    -5.402468     3.804290
H     7.232834    -2.841055     6.464298
O     7.301785    -2.020987     5.947244
H     6.387896    -1.732092     5.829566
H     9.019925    -4.134234     4.242369
O     9.019385    -5.035664     4.608086
H     8.665588    -4.934328     5.506623
N     7.299093    -4.732350     6.979195
H     7.450760    -5.059846     7.869825
H     6.473977    -5.165794     6.667878
