15
Coordinates from ORCA-job grain_mol_opt.QMRegion
  H   -2.43213831923953      3.13701212618270     10.21020173306525
  O   -2.34591086702992      2.15632853913175     10.16991185763130
  H   -2.91737398140567      1.89527427766993      9.42743226044540
  H   -0.02606690351568      3.37475865819314      8.95678775083850
  O   0.24262709746210      2.48504872329428      9.26763680964525
  H   -0.54900837209055      2.19404010028474      9.75840506833712
  H   -2.03736280803077      5.44373039031414     10.72724043025831
  O   -2.74806777647434      4.76551183335071     10.78818365323574
  H   -2.79851343425679      4.48546955036464     11.71879420794579
  H   -4.23474006148034      5.10367241234134      9.74759021917316
  O   -4.86826134941467      5.19556772110794      9.01238971164022
  H   -5.39382560162653      4.37952199300495      9.01690684561186
  O   -2.92476559393171      2.88161957747653     12.88938159784360
  H   -3.81998141103439      2.74008526570810     13.21153515232200
  H   -2.85386709314530      2.31202344646680     12.10251440557634
