12
Coordinates from ORCA-job grain_mol_opt.QMRegion
  H   -10.05699437057537      2.89994854256907     -4.97061652976982
  O   -10.31945490626293      2.03998908081328     -4.60267656444744
  H   -10.29937131457168      2.24108609701083     -3.64208008169014
  H   -10.06462202498130      4.13173963832959     -2.80954153529025
  O   -10.35384783590145      3.43398976665309     -2.18841014967497
  H   -9.60116404451007      3.34365553593697     -1.56969865669384
  H   -9.70045101045208      5.79276312715913     -4.73611566657768
  O   -10.04678627206595      4.89447411202972     -4.55854759979480
  H   -11.01768566033068      4.96302799810970     -4.56237700976010
  O   -12.69628797998368      3.96649321068558     -4.01714803150948
  H   -12.39357059359715      3.83479956586578     -3.10783570411122
  H   -12.41926905613019      3.14429703525699     -4.44681646247874
