33
Coordinates from ORCA-job grain_mol_opt.QMRegion
  H   -3.15452273481628      6.20574205281667     -0.27535883587011
  O   -3.07312186525586      6.80979796829715     -1.04959945994527
  H   -3.01015486055702      7.71736783128503     -0.70374871717231
  H   -3.93580569615569      5.88408347376714     -2.54066485487278
  O   -4.28035004221958      5.03901684688314     -2.87531946906238
  H   -4.08932716370452      5.00436067264604     -3.83403814104815
  H   -3.23529869903523      4.83320828261518      1.33750660647889
  O   -4.01988193648689      5.21997441769518      0.88756301630694
  H   -4.36267430309682      5.81604041359299      1.60516784635296
  H   -5.22562999113798      4.07345984432386      0.18067852807818
  O   -5.64399288022504      3.20805511778761      0.03114651000060
  H   -6.57848976218094      3.29597705414277     -0.25923605070232
  H   -1.81222931531599      9.60834323670152     -0.77051806996599
  O   -2.63874470799298      9.44134848477888     -0.24200983809922
  H   -3.27272495006711     10.08273093874264     -0.57490460910922
  H   -5.98492333291917      4.62845807059308     -2.89372009757775
  O   -6.88316280305164      4.49244256107519     -3.26833919104520
  H   -6.74540235460895      3.76518118771584     -3.91783671896473
  H   -2.27100288194959      8.76559341265170      1.35067603970531
  O   -2.18784713885060      8.12578046182011      2.07897612696707
  H   -1.39706522528275      7.58505380900348      1.87988345724970
  H   -4.45001344604148      6.55542684818051      3.62725298583526
  O   -4.61291669933621      6.98412865439672      2.76339911328470
  H   -3.76685714500469      7.44499694034647      2.58582328398842
  H   -5.90155016145691      7.33926210356881     -4.25024219314682
  O   -6.39013267392206      6.71668557217902     -4.81971613590676
  H   -6.65439680399193      5.97136370042994     -4.23194415089222
  H   -4.25213255024065      9.07272469236009     -3.08720004883710
  O   -4.88712903777954      8.34157411142592     -3.06551960294619
  H   -5.24714642982537      8.33097144805086     -2.16283275399812
  O   -5.87855622075952      7.51469474979271     -0.49227277599800
  H   -6.05519624024653      7.79886497790662      0.41026796462642
  H   -5.05630130975271      7.00737278351149     -0.42243845118304
