36

H    -4.956891     5.737945    -5.640574
O    -4.407621     4.928091    -5.678280
H    -3.615950     5.123973    -6.214498
H    -5.821628     4.689694    -2.988927
O    -6.730456     4.541648    -3.337997
H    -6.559358     3.821467    -3.990185
H    -7.537450     3.754588    -1.983847
O    -7.908804     3.239169    -1.235926
H    -7.765275     2.307318    -1.525469
H    -5.332816     3.407543    -5.615564
O    -5.908095     2.707896    -5.243684
H    -5.270141     2.110867    -4.784159
H    -7.388748     1.476802    -5.292251
O    -7.917923     0.737519    -4.957477
H    -8.862898     1.081036    -4.951801
H    -7.828378    -0.018170    -1.911021
O    -7.396871     0.763590    -2.293771
H    -7.577914     0.738131    -3.263464
H    -9.960670     2.593973    -5.530314
O    -10.250122     1.874531    -4.936847
H    -10.337073     2.330058    -4.067489
H    -10.242883     4.315414    -3.074861
O    -10.381595     3.454764    -2.649296
H    -9.631451     3.372159    -2.028670
H    -5.650597     7.390904    -4.257777
O    -6.190324     6.828736    -4.857733
H    -6.480836     6.073601    -4.292440
H    -9.518984     6.604979    -4.362163
O    -10.009357     5.749426    -4.445672
H    -10.854631     5.992938    -4.835815
H    -8.443381     8.450139    -3.562779
O    -8.598270     8.064912    -4.431136
H    -7.712991     7.726489    -4.699106
N    -8.918037     3.967674    -6.345970
H    -9.140543     4.663239    -5.695622
H    -7.975558     3.809314    -6.228408
