603

H     0.200423     3.033467    -0.666322
O     0.723072     2.364771    -1.159297
H     1.662014     2.493759    -0.886156
H    -0.074713    -1.303949     3.164547
O     0.317042    -0.603891     2.619892
H    -0.160363     0.209870     2.852843
H    -2.398869     2.413070    -0.522348
O    -2.188505     1.942320     0.301620
H    -2.204052     0.994563     0.076273
H    -4.661988     0.550046     2.195889
O    -4.978760    -0.383669     2.210644
H    -4.475317    -0.861186     1.543042
H     0.064681    -0.305858     0.964587
O    -0.133900    -0.069313     0.037965
H     0.205909     0.827101    -0.083243
H    -0.152978    -3.573973     3.791637
O    -0.432082    -2.744231     4.212808
H     0.215036    -2.573565     4.913677
H    -4.885958     2.533454     1.344043
O    -4.246783     2.123116     1.958712
H    -3.403947     2.105954     1.445890
H    -3.249752     3.900179    -2.198422
O    -2.512346     3.302898    -1.967553
H    -2.153913     3.015284    -2.827309
H    -0.124907    -3.802409     0.517121
O     0.215089    -2.984862     0.934866
H    -0.572085    -2.498204     1.246520
H    -2.377313    -1.535248     2.483370
O    -2.188862    -2.001704     1.642902
H    -2.446798    -1.414864     0.912919
H     2.072283    -1.441341    -1.108715
O     2.304240    -1.693962    -0.191253
H     1.515235    -2.121640     0.192824
H    -1.390420     1.826629     1.924987
O    -1.482366     1.429076     2.801081
H    -1.467417     2.141882     3.465838
H     0.207826    -2.701221    -1.556799
O    -0.548013    -2.089779    -1.610833
H    -0.368143    -1.363019    -0.977508
H    -3.437217    -2.922817    -0.376828
O    -2.719939    -3.415304    -0.796997
H    -2.009903    -2.784803    -1.016296
H     2.773270     0.131294     2.945543
O     2.872352    -0.051166     3.907321
H     2.964255     0.841804     4.311720
H    -3.530140     6.382658    -0.529831
O    -3.291997     7.044974    -1.230318
H    -3.149981     7.890258    -0.760328
H     3.901861     0.586220     1.197299
O     2.951431     0.404146     1.314011
H     2.714049    -0.347972     0.734318
H    -5.782407     0.845336    -1.590403
O    -4.871907     1.172311    -1.463738
H    -4.982714     2.000965    -0.952487
H    -1.211677     5.400145     2.222136
O    -1.836332     4.652592     2.106081
H    -1.913688     4.234591     2.968986
H     3.493253     2.765197     0.436232
O     3.244592     2.722098    -0.502725
H     3.577322     1.879647    -0.853390
H     1.490108    -4.695169    -2.237801
O     1.554755    -3.917823    -1.664783
H     2.349292    -3.456742    -2.016221
H    -0.923283    -0.082965    -2.535137
O    -0.289152     0.569296    -2.859661
H    -0.028371     1.151928    -2.123066
H     1.698846    -4.683468    -0.166452
O     1.805717    -5.320257     0.576444
H     1.342510    -6.131595     0.280551
H    -1.228031    -3.263807    -2.866334
O    -1.054977    -3.947383    -3.526985
H    -0.928256    -4.794234    -3.057942
H    -2.779238     3.314482     4.719336
O    -1.798446     3.307965     4.681748
H    -1.505632     2.909849     5.519487
H     0.963112     5.037602     4.087204
O     0.017050     5.269415     4.139715
H    -0.454742     4.466363     4.398243
H    -1.730994    -4.648551    -0.357544
O    -0.965768    -5.189091    -0.072461
H    -1.313105    -5.876217     0.505606
H    -3.919526     5.834365    -2.584717
O    -4.270323     5.000179    -2.914300
H    -4.115802     4.965348    -3.882558
H    -2.430293    -3.686842     1.950176
O    -2.448798    -4.590495     2.327255
H    -1.508881    -4.829059     2.466483
H    -4.697240    -2.977827    -2.883955
O    -3.845035    -3.210693    -3.290505
H    -3.513791    -4.004274    -2.825381
H     0.340486     1.380046     4.627294
O     0.846272     2.139926     4.293308
H     0.895477     2.799301     4.999843
H    -4.656370    -5.167833    -1.555997
O    -5.357827    -4.814256    -0.981828
H    -5.144296    -5.168850    -0.097900
H     2.324244    -6.480317    -4.026927
O     1.987495    -6.151454    -3.173313
H     2.422279    -6.725136    -2.510174
H     0.464519    -3.377444    -3.992807
O     1.267047    -3.010517    -4.416261
H     0.947261    -2.639091    -5.264713
H     1.964948    -1.750201     2.993682
O     2.119554    -2.681335     2.776988
H     1.433711    -2.894937     2.109967
H    -3.017023    -1.807062    -3.195746
O    -2.594954    -0.920558    -3.130697
H    -3.250465    -0.274971    -3.450480
H    -3.190721     4.978423     1.093107
O    -3.972996     5.351332     0.639121
H    -4.387480     5.909580     1.345553
H     0.876542     2.256354     2.602922
O     0.976546     2.250984     1.631668
H     1.703893     1.628317     1.467191
H     0.189207     5.659296    -0.746532
O     0.710508     6.320976    -1.255903
H     0.852924     7.120999    -0.700465
H     0.343104     7.038944     2.602208
O    -0.019300     6.657990     1.785130
H     0.644854     5.987680     1.523523
H    -2.479223     0.218724     3.354668
O    -2.701945    -0.594432     3.861171
H    -1.939710    -0.634743     4.480995
H    -0.890496     0.557446     6.038026
O    -0.619456     0.035712     5.264167
H     0.096050    -0.566229     5.549530
H     0.709811    -4.991710     1.993246
O     0.167818    -5.101136     2.797966
H     0.312834    -6.021724     3.070100
H    -2.119240    -8.085927     0.462667
O    -1.796697    -7.597640     1.247639
H    -2.582914    -7.286646     1.703963
H    -0.381524     6.865971    -2.313707
O    -1.128347     7.285638    -2.812609
H    -1.917916     7.159519    -2.248368
H    -1.114120     4.312266     0.586398
O    -0.741668     4.372881    -0.309947
H    -1.448673     4.131125    -0.941922
H    -4.409197     2.751023     3.519607
O    -4.410437     2.920824     4.484163
H    -4.489949     2.038041     4.893044
H     2.025227    -3.579722     4.256445
O     1.961319    -4.051377     5.109996
H     2.469961    -3.515221     5.739860
H     4.687426    -3.192699     0.849839
O     4.526378    -3.117230    -0.116551
H     3.667499    -2.639868    -0.199638
H    -2.724210    -0.746012    -1.337853
O    -3.051524    -0.476287    -0.463267
H    -3.851707     0.050057    -0.670141
H    -1.619748    -0.758890    -4.618006
O    -1.113194    -0.543215    -5.422195
H    -0.403274     0.053448    -5.137514
H     1.792426    -1.713168    -3.365323
O     1.884872    -0.966405    -2.742158
H     1.107537    -0.389199    -2.873070
H     3.663340    -3.120109     2.561867
O     4.622347    -3.348935     2.488358
H     4.677330    -4.309068     2.615140
H     3.426702    -6.119086     3.134937
O     3.781824    -5.918395     2.234521
H     3.044055    -5.572847     1.691927
H    -3.346663     1.613083    -4.163994
O    -4.191515     1.142451    -3.972729
H    -4.408470     1.288436    -3.016063
H    -5.083357     4.150137     0.081242
O    -5.522329     3.284054    -0.021026
H    -6.452579     3.403356    -0.303390
H     6.732434    -1.180791    -1.353543
O     5.960430    -1.031134    -0.801380
H     5.541615    -1.898875    -0.603584
H     4.591475    -3.167663    -2.459894
O     3.723322    -2.996457    -2.875338
H     3.726356    -3.615260    -3.631485
H     4.436527    -2.291163     5.632393
O     4.093478    -2.756656     6.425583
H     4.429087    -3.661500     6.344158
H    -0.752784     6.341225     5.086642
O    -1.349405     6.916373     5.625101
H    -1.363631     7.793716     5.184220
H     4.696832    -0.135003    -1.456326
O     3.929220     0.407296    -1.718702
H     3.236675    -0.193320    -2.048500
H    -0.745627     4.525366    -4.025094
O    -1.528521     5.068247    -4.232755
H    -1.376859     5.935061    -3.810523
H     0.657235     3.205600    -2.646442
O     0.663939     3.582088    -3.555030
H     0.711028     2.818551    -4.140435
H    -5.383941    -5.190903     1.810062
O    -4.687373    -5.785534     1.454757
H    -3.846673    -5.369593     1.724827
H     7.877941    -1.689885    -4.025375
O     7.620569    -1.376491    -3.125637
H     7.133762    -0.532575    -3.282053
H     3.696803    -5.071542    -5.278988
O     4.459546    -4.698089    -4.798413
H     4.844347    -5.409083    -4.252809
H    -3.781266     0.020133     4.946681
O    -4.383732     0.482510     5.579679
H    -5.042172    -0.176437     5.873578
H     3.462635    -5.940914    -0.508161
O     4.335188    -5.693788    -0.826432
H     4.411609    -4.731436    -0.683001
H     4.997031    -0.335088    -4.150833
O     4.461378    -1.046476    -4.540229
H     4.135777    -1.629694    -3.822073
H    -1.175781     1.573715    -3.923956
O    -1.826509     2.194259    -4.309227
H    -1.469470     2.525777    -5.155836
H     4.882114    -6.321029    -2.304416
O     5.214311    -6.646204    -3.170215
H     6.032449    -7.127087    -2.983993
H     8.737059    -5.091489    -2.909923
O     8.046038    -5.509022    -2.351076
H     8.080558    -6.466376    -2.452973
H     2.337455     4.721773     0.461806
O     1.758812     4.703781     1.233436
H     1.401151     3.783701     1.311239
H    -4.414832    -2.631096     4.246411
O    -5.308866    -2.290028     4.046163
H    -5.171875    -1.510334     3.468383
H    -5.847106    -3.192655     1.333359
O    -6.309528    -3.749200     2.002555
H    -6.120612    -3.313735     2.852725
H     1.688467     3.472523     6.873674
O     1.065080     3.986916     6.339543
H     0.282453     4.142318     6.911521
H     5.001324    -2.167043     3.626361
O     5.021934    -1.448753     4.290477
H     4.210208    -0.892364     4.133839
H     2.391073    -5.573835     4.850826
O     2.771024    -6.457648     4.590823
H     2.026032    -7.039350     4.417164
H     2.251409    -4.515749    -6.778487
O     2.082695    -5.003837    -5.962592
H     1.818513    -4.312439    -5.307201
H     6.437714    -4.102138    -0.493923
O     7.191112    -4.505076    -0.030866
H     7.698106    -4.927990    -0.751777
H    -1.725477     4.489671     7.715384
O    -0.824872     4.590131     8.095034
H    -0.647817     5.549619     8.124269
H    -5.123078     5.695286    -5.582206
O    -4.515486     4.931768    -5.602585
H    -3.758623     5.145994    -6.169170
H     3.274741    -2.527647    -8.426079
O     3.187478    -3.059895    -7.624442
H     4.064408    -3.035661    -7.196211
H    -0.662461     8.828898    -2.267702
O    -0.539184     9.657513    -1.749220
H     0.223411     9.483347    -1.172830
H     2.067847    -0.909493     5.222501
O     1.494822    -1.434262     5.810821
H     1.591288    -1.089528     6.707880
H     5.200611    -2.024089    -5.683438
O     5.546390    -2.790532    -6.205451
H     5.272906    -3.580325    -5.687486
H     5.695918    -5.212328     4.696515
O     5.174009    -5.126994     5.523414
H     4.452750    -5.759360     5.438553
H    -3.904018     1.098881     6.899348
O    -3.775683     1.565571     7.768817
H    -4.697873     1.853196     7.973257
H    -1.853108     9.617197    -0.734681
O    -2.713269     9.490695    -0.259799
H    -3.324678     10.119257    -0.647160
H    -5.951578     4.691940    -2.923928
O    -6.860584     4.572436    -3.267127
H    -6.770557     3.870060    -3.944264
H     0.091734    -7.062720    -1.129328
O     0.556416    -7.498263    -0.381692
H    -0.122385    -7.693167     0.267522
H    -7.640199     3.794017    -1.957417
O    -7.900880     3.207144    -1.216951
H    -7.758327     2.298455    -1.556708
H     3.975860    -0.888966     6.996948
O     3.983904     0.075215     6.987713
H     4.795916     0.365303     6.555609
H     2.256118     5.798046    -1.170136
O     3.191692     5.505226    -1.056332
H     3.367854     4.965043    -1.849580
H     6.548873    -5.928200     0.682033
O     6.180565    -6.664395     1.216151
H     5.276169    -6.387251     1.443386
H    -3.844355     4.825287     7.836057
O    -3.308646     4.360604     7.148033
H    -3.564928     3.427149     7.183666
H     5.760352    -7.944256     0.149019
O     5.472072    -8.631613    -0.488048
H     4.642702    -8.306178    -0.881914
H    -0.555617     2.047114     7.705755
O    -1.188553     1.978799     6.970646
H    -2.057474     1.842221     7.365447
H    -6.384578    -0.117926     1.078883
O    -6.704916    -0.201715     0.166195
H    -7.623644    -0.472590     0.183802
H    -5.374163    -3.061280    -0.571612
O    -5.122351    -2.358943     0.054274
H    -5.691899    -1.585987    -0.134327
H     4.316224     5.579857     0.328454
O     4.650554     5.680551     1.233495
H     3.956496     6.191335     1.685920
H    -9.047420    -1.741821    -2.234868
O    -8.499271    -1.540257    -1.448974
H    -8.626150    -2.277038    -0.811435
H    -5.529855     3.472633    -5.512681
O    -6.046844     2.762042    -5.097348
H    -5.379931     2.176722    -4.684004
H     3.174864    -0.888108    -5.644525
O     2.318610    -1.008300    -6.109696
H     2.403930    -1.857419    -6.582981
H     8.108576    -1.350135    -6.021414
O     8.117031    -2.213945    -5.564608
H     7.260712    -2.614010    -5.814557
H     7.614732     0.990241    -6.302710
O     7.425496     0.141773    -6.715479
H     6.444131     0.091846    -6.751099
H    -7.862314    -3.689585     0.948139
O    -8.541248    -3.582412     0.264413
H    -8.443628    -4.341818    -0.337476
H    -2.408554     8.740142     1.304358
O    -2.257595     8.151427     2.057185
H    -1.487225     7.598721     1.834348
H    -4.442905     6.440066     3.511022
O    -4.614483     6.864724     2.653993
H    -3.851776     7.451340     2.513349
H     3.396684     3.447406    -3.568138
O     3.243414     4.416671    -3.474903
H     2.278487     4.481366    -3.582005
H    -6.120112    -1.603446    -3.425360
O    -6.202507    -2.182193    -2.640895
H    -6.986350    -1.874819    -2.132229
H     6.468529     1.052876     4.748000
O     6.074640     1.591771     5.450938
H     6.262636     2.510403     5.159541
H     1.355726     1.722625    -5.811555
O     1.161602     1.127021    -5.056964
H     1.525026     0.263895    -5.326693
H    -2.344988     3.047905     10.409678
O    -2.280839     2.093559     10.217271
H    -2.758647     1.969132     9.382084
H     7.627252    -0.495202     3.091403
O     6.877181     0.080326     3.260526
H     6.185330    -0.519947     3.640621
H    -5.662504    -8.051445    -0.682357
O    -4.927185    -8.119895    -0.036434
H    -4.930616    -7.302475     0.485247
H    -5.182841    -0.117003    -4.699352
O    -5.800154    -0.828893    -4.938211
H    -6.638367    -0.387248    -5.136131
H     1.882748    -0.198629    -7.503693
O     1.680570     0.272913    -8.347620
H     2.256781    -0.132593    -9.000969
H     4.863739    -1.394354    -9.294262
O     3.938369    -1.165652    -9.575944
H     3.917640    -1.283722    -10.524948
H     7.564003    -2.567959     4.208674
O     7.710134    -2.604329     3.249106
H     7.216720    -3.395350     2.977856
H     6.719755    -5.892497     2.695177
O     6.781747    -5.217096     3.396103
H     7.657980    -5.301898     3.813348
H    -1.821386     8.951721     3.508328
O    -1.572459     9.256525     4.406170
H    -2.420632     9.388769     4.863219
H    -7.395845     1.569565    -5.233761
O    -7.970436     0.825568    -4.987698
H    -8.872166     1.225209    -4.911560
H     6.918248    -1.084161    -8.395994
O     6.336048    -1.805264    -8.658966
H     6.108808    -2.254868    -7.826705
H    -1.683316     6.241797    -7.010969
O    -2.080927     5.416615    -6.736742
H    -1.831859     5.286262    -5.773208
H    -0.003815     3.315210     9.036766
O     0.185734     2.393303     9.292262
H    -0.612424     2.136863     9.800437
H     6.751862    -2.778990    -2.695763
O     6.221635    -3.523129    -2.354104
H     6.690085    -4.334010    -2.600546
H    -4.083403    -3.071357    -4.927220
O    -4.238162    -2.959096    -5.891950
H    -4.785573    -2.166157    -5.948155
H     1.983427     2.187051     8.477889
O     2.644794     2.300219     7.786128
H     3.069029     1.430916     7.670186
H    -6.911579    -5.198351    -1.376620
O    -7.827425    -5.467700    -1.621206
H    -7.961583    -5.065741    -2.504376
H    -3.826357     5.259332     5.707204
O    -3.793175     6.028579     5.118542
H    -2.859823     6.324261     5.214183
H    -7.888809     0.091125    -1.948692
O    -7.399118     0.814589    -2.362497
H    -7.627935     0.803444    -3.315677
H     5.835436     0.132203     0.420940
O     5.613729     0.853864     1.041733
H     6.124686     0.659211     1.854332
H    -6.383296     3.064608     7.265603
O    -6.269563     2.435602     8.022677
H    -6.872490     1.679010     7.849735
H     2.274541    -8.071739    -0.828083
O     2.950984    -8.059275    -1.524846
H     2.725758    -8.773652    -2.137500
H    -2.751527    -3.960677    -6.181125
O    -1.997840    -4.526938    -5.949561
H    -1.720861    -4.234993    -5.052750
H    -5.664777     3.765947     5.256384
O    -6.387046     4.081952     5.842854
H    -6.185442     5.014920     5.974531
H    -1.023599    -7.112626    -3.146875
O    -0.550837    -6.442660    -2.619176
H     0.356440    -6.373532    -3.000701
H     4.445663     2.020961     5.138339
O     3.503813     2.259980     5.018860
H     3.120197     2.277213     5.900923
H     4.111801     4.662119     6.309809
O     4.192602     5.391733     5.691135
H     3.624087     5.151228     4.920882
H     2.765591     3.621549     3.932536
O     2.587887     4.561565     3.766545
H     2.467584     4.660002     2.800194
H     9.390547     0.212247    -1.064339
O     8.584742     0.375371    -0.570511
H     8.409223    -0.443193    -0.076840
H    -1.890569     5.414624     10.745965
O    -2.618174     4.759666     10.894017
H    -2.909266     4.929346     11.793565
H     7.970560    -3.007576     0.336561
O     8.391902    -2.160823     0.591047
H     8.326767    -2.155483     1.553399
H     5.371117     3.668727     3.533193
O     6.027660     3.933826     4.199238
H     5.615720     4.652541     4.700648
H    -3.849135     5.668378     9.704119
O    -4.606913     5.678640     9.094196
H    -5.178528     5.022066     9.539727
H    -7.015934    -3.475462    -3.466485
O    -7.636830    -4.087523    -3.913987
H    -7.116375    -4.529955    -4.616429
H     0.054224     6.144866     10.776815
O    -0.802885     6.496584     10.533287
H    -0.690682     6.914253     9.659962
H     2.584206     1.496617    -4.094605
O     3.462835     1.849311    -3.856803
H     3.783586     1.334796    -3.086147
H    -7.094816    -0.394579     7.086268
O    -7.688138     0.317113     7.399069
H    -8.285851     0.470417     6.661122
H    -2.746691    -9.870427    -0.810802
O    -2.683562    -8.928822    -0.970912
H    -3.589327    -8.562250    -0.730059
H    -10.074224     3.078799    -4.879382
O    -10.191085     2.161472    -4.598090
H    -10.406252     2.246011    -3.648282
H    -2.067224    -3.018890     4.630057
O    -2.942890    -3.457722     4.700624
H    -2.937053    -4.076513     3.944960
H    -0.179835    -7.978486     2.502162
O     0.646746    -7.767614     2.949479
H     1.364744    -8.064005     2.362531
H     6.707581    -2.370662     6.402405
O     7.156382    -3.080807     5.938840
H     6.526306    -3.815587     5.901397
H    -5.270904    -1.997521     6.961524
O    -5.946644    -1.500162     6.476044
H    -5.930007    -1.878300     5.567042
H     0.829162     3.032777    -7.103380
O     1.746670     2.701739    -7.159983
H     1.732300     1.953965    -7.785500
H    -3.953407     8.762069     6.686423
O    -3.949486     8.760752     5.728923
H    -4.076520     7.833391     5.462080
H    -2.063035     10.316650    -2.727294
O    -2.964926     10.497882    -3.028612
H    -2.893863     11.131692    -3.741706
H     9.410452    -4.058018     4.052938
O     9.130763    -4.735713     4.676008
H     8.702174    -4.262815     5.400330
H    -0.741984    -5.996487    -5.824435
O    -0.038436    -6.562887    -5.490907
H     0.797032    -6.101779    -5.709617
H     1.824506     8.278824     0.672450
O     1.520508     8.600046    -0.205089
H     2.334735     8.637869    -0.736255
H     3.491569     2.929580    -6.653052
O     4.319467     2.639411    -6.244340
H     4.074968     2.366262    -5.335100
H     3.730769     7.127209    -1.222827
O     3.936510     8.062761    -1.437009
H     4.304989     8.006125    -2.330597
H     4.386998    -0.008332    -7.901929
O     4.764710     0.138281    -7.032839
H     4.583391     1.070393    -6.789642
H     6.028085     1.935112    -0.467519
O     6.592765     2.127751    -1.229887
H     7.417469     1.648138    -1.036375
H     6.679639    -8.430078    -1.594669
O     7.314962    -8.219791    -2.331862
H     7.681756    -9.054129    -2.619360
H    -5.308468    -5.786514    -5.388089
O    -5.925844    -5.114482    -5.702392
H    -5.374761    -4.346575    -5.940276
H     0.687532     7.182297     7.607941
O    -0.213296     7.208345     7.968898
H    -0.771832     7.222975     7.153608
H    -8.903480    -2.830530    -4.081334
O    -9.423389    -2.021745    -3.913482
H    -9.138133    -1.357346    -4.544491
H    -2.414765    -5.985393    -2.126127
O    -3.293164    -5.699110    -2.393978
H    -3.481097    -6.074098    -3.279487
H    -2.993812    -5.898354    -5.391526
O    -3.593348    -6.507721    -4.918291
H    -3.111503    -7.328096    -4.751898
H    -1.397660     3.727482    -6.970360
O    -0.857375     2.971712    -6.699511
H    -1.094831     2.186390    -7.248919
H    -0.212576     0.417404    -8.202978
O    -1.108341     0.652921    -7.918917
H    -1.282971     0.129684    -7.120645
H    -10.427101     4.057347    -2.715234
O    -10.494031     3.279107    -2.146435
H    -9.664139     3.253041    -1.638456
H     4.579334     4.084079     1.728496
O     4.371351     3.163143     2.007577
H     5.086994     2.587209     1.725803
H     6.480294     1.398576    -4.211925
O     6.177675     0.774836    -3.517395
H     6.209314     1.270753    -2.673884
H     9.629551    -2.224797    -0.922376
O     9.905474    -2.010820    -1.822471
H     9.104804    -1.672245    -2.265443
H     9.964200    -3.320690    -3.091314
O     9.696479    -3.973014    -3.765705
H     9.302386    -3.465709    -4.485965
H    -7.703344    -8.570634    -1.644021
O    -6.965623    -7.976171    -1.772483
H    -7.343375    -7.063236    -1.762925
H     4.155970     6.082192    -3.813829
O     4.817164     6.783435    -3.729694
H     5.653486     6.329562    -3.592701
H     0.090474    -8.169360    -5.198778
O     0.114187    -9.152179    -5.066314
H     0.264061    -9.516546    -5.938733
H    -2.338217    -8.670988    -2.697151
O    -2.105230    -8.407463    -3.606971
H    -1.458999    -9.026103    -3.966167
H     2.177254    -10.814972    -3.479079
O     2.131088    -9.860427    -3.455004
H     1.345420    -9.589827    -3.980914
H     6.830248     3.330997    -4.568242
O     6.887755     2.652335    -5.268700
H     6.093941     2.785335    -5.808936
H    -3.562340    -3.714042     7.738206
O    -3.676987    -2.926406     7.207937
H    -3.425800    -3.166165     6.289576
H    -0.645812    -3.361555    -6.709443
O    -0.015424    -2.630267    -6.717610
H    -0.496789    -1.854494    -6.376148
H     0.645387     0.469704     8.765517
O     0.653074    -0.245475     8.125448
H    -0.268685    -0.535512     8.038003
H    -5.839159     7.371222    -4.237322
O    -6.342559     6.752040    -4.797599
H    -6.629233     6.021613    -4.205728
H    -4.283113     9.106557    -3.251214
O    -4.818628     8.310399    -3.144076
H    -4.409653     7.831411    -2.405146
H    -9.717262     5.800507    -4.627791
O    -10.250528     4.995913    -4.463435
H    -11.131317     5.196703    -4.781797
H     2.772133     6.522277     6.147749
O     1.812136     6.618934     6.246003
H     1.467869     5.705893     6.144433
H     4.801984     8.550726     0.089279
O     5.120103     8.551959     1.009958
H     5.527213     7.687774     1.140966
H     4.136309    -7.424980    -4.329302
O     3.377640    -7.709931    -4.870704
H     3.097800    -8.550776    -4.493991
H     0.378100     8.665895     4.242838
O     1.055572     8.021102     4.014264
H     1.283045     7.528966     4.829034
H     5.230795     4.193002    -3.150585
O     6.192284     4.162845    -3.098634
H     6.401756     3.581858    -2.350611
H    -2.573138    -1.539110     7.588652
O    -2.064056    -0.745830     7.811408
H    -2.692433    -0.119080     8.180595
H    -9.032886     7.940824    -4.130051
O    -8.970394     7.355400    -4.886242
H    -8.013423     7.191526    -5.022350
H     3.527414    -8.976397     1.105202
O     2.851062    -8.344385     1.354315
H     3.326054    -7.538974     1.633371
H     3.583800     8.176550     1.835794
O     2.793520     7.612934     1.949081
H     2.347701     7.849388     2.775247
N    -5.697775     3.480077     10.506280
H    -4.914474     2.960012     10.722187
H    -6.071967     3.032016     9.721387
