603

H     0.211127     3.036593    -0.712786
O     0.732345     2.365755    -1.204440
H     1.672505     2.498245    -0.937735
H    -0.035141    -1.280149     3.142840
O     0.353906    -0.582017     2.593807
H    -0.125236     0.231680     2.823402
H    -2.385777     2.412546    -0.550365
O    -2.169315     1.946468     0.274759
H    -2.185991     0.997449     0.054532
H    -4.630882     0.560686     2.190677
O    -4.945258    -0.373477     2.212102
H    -4.445095    -0.853752     1.544069
H     0.090848    -0.293912     0.937657
O    -0.112936    -0.063083     0.010838
H     0.223601     0.833584    -0.117406
H    -0.106333    -3.547130     3.782920
O    -0.383176    -2.715236     4.201483
H     0.267380    -2.541547     4.897987
H    -4.863102     2.538911     1.329365
O    -4.219017     2.133794     1.942456
H    -3.379702     2.114866     1.424105
H    -3.248782     3.888822    -2.229846
O    -2.508852     3.294241    -1.999813
H    -2.155083     3.002306    -2.860064
H    -0.095238    -3.793263     0.510689
O     0.245750    -2.972917     0.922233
H    -0.540857    -2.485900     1.235020
H    -2.341237    -1.519543     2.476479
O    -2.155153    -1.989911     1.637540
H    -2.419523    -1.408043     0.905862
H     2.088609    -1.437478    -1.140535
O     2.326018    -1.684333    -0.222821
H     1.539883    -2.111560     0.167681
H    -1.364028     1.840937     1.893566
O    -1.447659     1.448916     2.773096
H    -1.432247     2.166152     3.432439
H     0.223745    -2.703182    -1.571270
O    -0.533365    -2.093274    -1.624442
H    -0.351337    -1.362725    -0.996225
H    -3.414602    -2.924663    -0.369748
O    -2.698352    -3.418038    -0.790739
H    -1.991026    -2.787302    -1.017756
H     2.809019     0.157328     2.900545
O     2.914004    -0.018119     3.863362
H     3.006072     0.877800     4.259975
H    -3.524171     6.380105    -0.573764
O    -3.290721     7.038832    -1.279180
H    -3.147954     7.887047    -0.814700
H     3.927343     0.605555     1.143764
O     2.978114     0.422056     1.268068
H     2.738269    -0.332949     0.692922
H    -5.772736     0.832742    -1.590653
O    -4.862082     1.162056    -1.471041
H    -4.971659     1.993454    -0.963954
H    -1.188598     5.417457     2.170156
O    -1.811713     4.667370     2.061732
H    -1.885490     4.255203     2.927502
H     3.510679     2.779477     0.373227
O     3.257343     2.731186    -0.564018
H     3.589227     1.887404    -0.912368
H     1.505524    -4.698569    -2.248183
O     1.572367    -3.918041    -1.679725
H     2.363940    -3.457560    -2.038563
H    -0.917589    -0.092287    -2.557973
O    -0.286038     0.559046    -2.889363
H    -0.022558     1.146337    -2.157514
H     1.726005    -4.675166    -0.178252
O     1.838200    -5.307547     0.567669
H     1.374635    -6.121304     0.278873
H    -1.218764    -3.275489    -2.869535
O    -1.047698    -3.962403    -3.527214
H    -0.917249    -4.806437    -3.054161
H    -2.740110     3.341247     4.684029
O    -1.758465     3.339600     4.646072
H    -1.462968     2.941652     5.481756
H     0.999363     5.066602     4.024423
O     0.053721     5.298089     4.083375
H    -0.418083     4.496409     4.344906
H    -1.704814    -4.646954    -0.350197
O    -0.937005    -5.184459    -0.066170
H    -1.280170    -5.869175     0.517238
H    -3.924232     5.819669    -2.623278
O    -4.275074     4.982888    -2.946162
H    -4.126264     4.943083    -3.915135
H    -2.393062    -3.673648     1.955696
O    -2.407587    -4.575238     2.337887
H    -1.466603    -4.811401     2.473201
H    -4.688312    -2.995337    -2.869167
O    -3.837868    -3.229025    -3.279022
H    -3.502895    -4.019551    -2.811401
H     0.382247     1.412492     4.588473
O     0.888054     2.169323     4.247803
H     0.943983     2.835468     4.947898
H    -4.636125    -5.178118    -1.529147
O    -5.334919    -4.822426    -0.953101
H    -5.116002    -5.171625    -0.068341
H     2.332812    -6.492220    -4.032118
O     2.000477    -6.159091    -3.178413
H     2.439805    -6.728528    -2.514639
H     0.467938    -3.392403    -4.004756
O     1.267473    -3.026371    -4.434635
H     0.942238    -2.660370    -5.283405
H     2.003574    -1.723950     2.963065
O     2.159461    -2.656023     2.751692
H     1.470475    -2.875159     2.089509
H    -3.011893    -1.823553    -3.196887
O    -2.590885    -0.936002    -3.139156
H    -3.249358    -0.293310    -3.458803
H    -3.173275     4.985450     1.054774
O    -3.958615     5.354533     0.603249
H    -4.370118     5.916131     1.308929
H     0.907054     2.278166     2.556678
O     1.002212     2.268265     1.585097
H     1.729172     1.645411     1.419779
H     0.195015     5.661909    -0.807318
O     0.712819     6.321465    -1.322931
H     0.856522     7.125008    -0.772909
H     0.365187     7.060650     2.533187
O    -0.000826     6.673726     1.720436
H     0.663517     6.003816     1.458618
H    -2.441472     0.239185     3.338269
O    -2.659295    -0.572204     3.849297
H    -1.894407    -0.608642     4.465351
H    -0.846754     0.588534     6.008058
O    -0.568213     0.068779     5.235850
H     0.148228    -0.530608     5.522829
H     0.749589    -4.973128     1.988497
O     0.213081    -5.078557     2.797442
H     0.360388    -5.997693     3.073334
H    -2.082640    -8.080468     0.491334
O    -1.756430    -7.587198     1.271701
H    -2.540659    -7.275027     1.730665
H    -0.386453     6.858782    -2.377904
O    -1.136728     7.274341    -2.874835
H    -1.922967     7.150149    -2.305475
H    -1.098313     4.320149     0.540056
O    -0.730721     4.376084    -0.358539
H    -1.440955     4.129899    -0.985274
H    -4.373844     2.768949     3.501976
O    -4.364865     2.944253     4.465697
H    -4.446352     2.063649     4.880189
H     2.075096    -3.546547     4.236134
O     2.016776    -4.012518     5.093292
H     2.529285    -3.472636     5.716503
H     4.717710    -3.173389     0.812900
O     4.551012    -3.103464    -0.152818
H     3.690758    -2.628222    -0.233871
H    -2.710581    -0.751636    -1.346784
O    -3.032915    -0.477231    -0.471778
H    -3.835702     0.045935    -0.676884
H    -1.624509    -0.780979    -4.632854
O    -1.122658    -0.568949    -5.440958
H    -0.412295     0.030560    -5.163544
H     1.796494    -1.722369    -3.393959
O     1.891233    -0.972066    -2.775344
H     1.112110    -0.396949    -2.905130
H     3.702925    -3.093279     2.530105
O     4.662051    -3.320388     2.453419
H     4.719449    -4.279907     2.584267
H     3.474928    -6.089290     3.121146
O     3.824782    -5.892244     2.217961
H     3.083149    -5.551907     1.677261
H    -3.352938     1.590670    -4.182126
O    -4.195665     1.119396    -3.983492
H    -4.407784     1.270380    -3.026488
H    -5.070288     4.148355     0.058421
O    -5.507844     3.280808    -0.036980
H    -6.440166     3.396796    -0.314003
H     6.746623    -1.170211    -1.413226
O     5.977823    -1.018830    -0.857025
H     5.561481    -1.886202    -0.652499
H     4.603200    -3.167160    -2.496399
O     3.732361    -2.999685    -2.907700
H     3.732104    -3.622605    -3.660505
H     4.492604    -2.244988     5.591669
O     4.154704    -2.704913     6.390456
H     4.490459    -3.610117     6.312336
H    -0.716186     6.375929     5.026693
O    -1.310464     6.950544     5.566503
H    -1.326908     7.826239     5.123471
H     4.708751    -0.128816    -1.510338
O     3.938598     0.410798    -1.770720
H     3.245355    -0.192653    -2.093965
H    -0.756024     4.508169    -4.074168
O    -1.541049     5.048457    -4.280350
H    -1.388657     5.917908    -3.863841
H     0.656669     3.198336    -2.696230
O     0.657999     3.569817    -3.606809
H     0.702785     2.803168    -4.188321
H    -5.344931    -5.183345     1.840792
O    -4.649301    -5.778993     1.485002
H    -3.807927    -5.360065     1.747965
H     7.878119    -1.692430    -4.088325
O     7.625176    -1.374393    -3.188892
H     7.136130    -0.532187    -3.347471
H     3.695863    -5.087992    -5.299714
O     4.460609    -4.710627    -4.825371
H     4.849708    -5.418036    -4.278183
H    -3.736202     0.048859     4.941075
O    -4.331861     0.515320     5.576768
H    -4.990715    -0.141410     5.875021
H     3.489905    -5.931386    -0.523133
O     4.360500    -5.684580    -0.846963
H     4.435826    -4.721270    -0.709871
H     4.994233    -0.343206    -4.205198
O     4.457616    -1.057665    -4.587526
H     4.137038    -1.637472    -3.864397
H    -1.180484     1.556215    -3.954390
O    -1.834345     2.173680    -4.339184
H    -1.482831     2.501027    -5.189738
H     4.900121    -6.319084    -2.324817
O     5.228057    -6.648350    -3.190650
H     6.047998    -7.126936    -3.006429
H     8.749404    -5.086265    -2.958777
O     8.062313    -5.501835    -2.393635
H     8.097862    -6.459677    -2.490559
H     2.351744     4.735230     0.394104
O     1.778629     4.719845     1.169968
H     1.422103     3.799913     1.253840
H    -4.366505    -2.608599     4.257295
O    -5.262170    -2.271288     4.059207
H    -5.130436    -1.493676     3.477670
H    -5.814091    -3.188797     1.355735
O    -6.271444    -3.742876     2.030287
H    -6.079048    -3.302036     2.877062
H     1.820108     3.515392     6.753194
O     1.219234     4.040962     6.198746
H     0.401264     4.184893     6.725601
H     5.045466    -2.132458     3.582101
O     5.068033    -1.410225     4.242168
H     4.254897    -0.856245     4.085780
H     2.447382    -5.536870     4.839788
O     2.827781    -6.421057     4.582812
H     2.083107    -7.005209     4.416016
H     2.241078    -4.543192    -6.794090
O     2.077976    -5.026947    -5.974479
H     1.816113    -4.332366    -5.321554
H     6.462047    -4.087421    -0.535779
O     7.218669    -4.486335    -0.074480
H     7.722388    -4.912532    -0.795801
H    -1.705005     4.512391     7.512079
O    -0.781958     4.603491     7.856468
H    -0.621545     5.565763     7.983492
H    -5.144333     5.661775    -5.612985
O    -4.535398     4.899266    -5.632552
H    -3.782245     5.111659    -6.204715
H     3.251702    -2.562526    -8.458444
O     3.169893    -3.090346    -7.653303
H     4.049208    -3.062319    -7.230275
H    -0.670405     8.821532    -2.341139
O    -0.545587     9.653191    -1.827981
H     0.220402     9.483617    -1.254801
H     2.118581    -0.871446     5.184827
O     1.551404    -1.392617     5.782414
H     1.657044    -1.043257     6.675609
H     5.192139    -2.040404    -5.729532
O     5.536438    -2.809162    -6.249056
H     5.267082    -3.596533    -5.725285
H     5.751200    -5.169563     4.665422
O     5.233307    -5.079652     5.494461
H     4.513424    -5.714613     5.417483
H    -3.916323     1.187362     7.009445
O    -3.716092     1.665729     7.850249
H    -4.590180     2.055595     8.114971
H    -1.853956     9.616424    -0.805836
O    -2.711186     9.490824    -0.325546
H    -3.325898     10.116379    -0.712535
H    -5.956129     4.671762    -2.944620
O    -6.866741     4.548958    -3.282256
H    -6.779375     3.842892    -3.955874
H     0.117710    -7.062393    -1.118841
O     0.587336    -7.492696    -0.371205
H    -0.087659    -7.685425     0.282623
H    -7.637823     3.776338    -1.963755
O    -7.893148     3.193164    -1.218567
H    -7.751060     2.282806    -1.553980
H     4.034592    -0.830781     6.951793
O     4.042045     0.133702     6.938297
H     4.851366     0.419092     6.497578
H     2.259427     5.801901    -1.243084
O     3.196019     5.510839    -1.132591
H     3.368725     4.967027    -1.924155
H     6.582965    -5.906702     0.649885
O     6.219028    -6.640288     1.190543
H     5.315267    -6.363639     1.420795
H    -3.809370     4.777687     7.764805
O    -3.256858     4.309143     7.096016
H    -3.447235     3.366774     7.217093
H     5.794843    -7.927090     0.132561
O     5.504124    -8.618443    -0.498954
H     4.672000    -8.296691    -0.890041
H    -0.598414     1.994324     7.638906
O    -1.238694     1.947393     6.913925
H    -2.099203     1.772232     7.317315
H    -6.358489    -0.116315     1.087330
O    -6.683397    -0.206378     0.176837
H    -7.601765    -0.477975     0.201434
H    -5.352334    -3.067057    -0.552664
O    -5.097356    -2.360761     0.067421
H    -5.670015    -1.590035    -0.121249
H     4.328489     5.595378     0.245109
O     4.667045     5.701020     1.148036
H     3.974937     6.214320     1.600754
H    -9.036933    -1.763462    -2.202342
O    -8.484339    -1.556660    -1.420966
H    -8.606608    -2.289753    -0.778265
H    -5.546745     3.438863    -5.528966
O    -6.060137     2.729654    -5.106874
H    -5.389992     2.147778    -4.693985
H     3.164625    -0.907672    -5.685609
O     2.305938    -1.031961    -6.145113
H     2.390054    -1.883514    -6.614246
H     8.097059    -1.363355    -6.087433
O     8.109484    -2.224512    -5.625720
H     7.252552    -2.627488    -5.868838
H     7.597494     0.974645    -6.379122
O     7.407415     0.123454    -6.785838
H     6.425956     0.071721    -6.815882
H    -7.830672    -3.691006     0.984931
O    -8.513345    -3.589005     0.304118
H    -8.417841    -4.351833    -0.293700
H    -2.396580     8.749767     1.240936
O    -2.240280     8.165209     1.995902
H    -1.470040     7.613013     1.771792
H    -4.415099     6.458621     3.471132
O    -4.591388     6.877967     2.612503
H    -3.830571     7.465403     2.465142
H     3.390589     3.439790    -3.634485
O     3.236227     4.409262    -3.545400
H     2.270636     4.471802    -3.647798
H    -6.116643    -1.626533    -3.410093
O    -6.193439    -2.201169    -2.622075
H    -6.974978    -1.892430    -2.110557
H     6.512310     1.096004     4.678717
O     6.120936     1.639061     5.380108
H     6.307323     2.555920     5.081356
H     1.340090     1.699039    -5.856815
O     1.151514     1.107367    -5.097694
H     1.514555     0.243281    -5.364865
H    -2.443648     2.941186     10.579119
O    -2.215563     2.034158     10.282426
H    -2.819182     1.869968     9.542958
H     7.665314    -0.457457     3.022950
O     6.915069     0.117166     3.194563
H     6.226733    -0.483331     3.580241
H    -5.632329    -8.058388    -0.633904
O    -4.893136    -8.121902     0.008135
H    -4.895250    -7.301655     0.525394
H    -5.189051    -0.145633    -4.697666
O    -5.806354    -0.859917    -4.929204
H    -6.646517    -0.420858    -5.124666
H     1.860881    -0.230769    -7.541204
O     1.653256     0.235816    -8.386530
H     2.226380    -0.172396    -9.040908
H     4.833872    -1.431389    -9.341843
O     3.906541    -1.205793    -9.619488
H     3.880641    -1.329091    -10.567707
H     7.612020    -2.525592     4.152173
O     7.752141    -2.566252     3.191926
H     7.259414    -3.360080     2.927646
H     6.764690    -5.859361     2.661966
O     6.829569    -5.180053     3.358946
H     7.708417    -5.261274     3.771391
H    -1.796912     8.974688     3.440365
O    -1.542793     9.285440     4.334569
H    -2.388279     9.418916     4.795967
H    -7.407968     1.534101    -5.228949
O    -7.979811     0.790466    -4.975556
H    -8.881816     1.188993    -4.896469
H     6.892930    -1.112615    -8.456829
O     6.310474    -1.836142    -8.712458
H     6.088741    -2.281537    -7.876473
H    -1.713588     6.206317    -7.064174
O    -2.107952     5.381839    -6.783221
H    -1.853475     5.257393    -5.820368
H    -0.120303     3.403100     8.854177
O     0.232887     2.568512     9.256176
H    -0.557820     2.255063     9.763834
H     6.761432    -2.776028    -2.746508
O     6.234520    -3.519088    -2.397420
H     6.702810    -4.330567    -2.642272
H    -4.085784    -3.099337    -4.915181
O    -4.245948    -2.992674    -5.879654
H    -4.795219    -2.201106    -5.937210
H     2.036372     2.038844     8.251405
O     2.823998     2.298299     7.756713
H     3.278068     1.448129     7.566860
H    -6.890253    -5.211354    -1.336903
O    -7.806838    -5.483916    -1.574981
H    -7.946768    -5.086906    -2.459485
H    -3.784773     5.294921     5.673472
O    -3.754472     6.058198     5.076291
H    -2.820629     6.356112     5.165846
H    -7.879816     0.073161    -1.932801
O    -7.393574     0.794970    -2.353554
H    -7.627993     0.778144    -3.305278
H     5.857432     0.151086     0.358961
O     5.637730     0.875474     0.977419
H     6.154037     0.686426     1.787818
H    -6.154091     3.354886     7.402834
O    -6.018061     2.838982     8.231648
H    -6.620645     2.078578     8.152275
H     2.303575    -8.065992    -0.824397
O     2.976339    -8.056248    -1.524752
H     2.748993    -8.774327    -2.132307
H    -2.759392    -3.993367    -6.171657
O    -2.003326    -4.556942    -5.941240
H    -1.721921    -4.259575    -5.047617
H    -5.598912     3.794467     5.307052
O    -6.244221     4.192117     5.927083
H    -6.083737     5.136594     5.907060
H    -1.008985    -7.125464    -3.129479
O    -0.534237    -6.451797    -2.608245
H     0.370582    -6.383165    -2.995577
H     4.492987     2.063182     5.072297
O     3.549506     2.300299     4.959413
H     3.170493     2.319785     5.842511
H     4.163944     4.706412     6.227479
O     4.236277     5.436692     5.609024
H     3.663356     5.192698     4.842731
H     2.801907     3.655446     3.866138
O     2.623426     4.594476     3.697090
H     2.495688     4.687909     2.731023
H     9.403836     0.229084    -1.146587
O     8.600793     0.393433    -0.648647
H     8.429481    -0.423071    -0.150117
H    -1.978885     5.297205     10.725838
O    -2.758778     4.696781     10.895070
H    -3.065105     4.936840     11.774409
H     7.997563    -2.985664     0.280006
O     8.418608    -2.136698     0.527636
H     8.359147    -2.126415     1.490279
H     5.405649     3.704123     3.452530
O     6.063859     3.972246     4.116009
H     5.655431     4.696860     4.611527
H    -4.122760     5.087273     9.769887
O    -4.762603     5.229564     9.050662
H    -5.375331     4.481997     9.062166
H    -7.009358    -3.500312    -3.435699
O    -7.631625    -4.115964    -3.876325
H    -7.114384    -4.561363    -4.579230
H     0.197882     5.795396     10.670764
O    -0.634048     6.307184     10.636880
H    -0.574652     6.803430     9.804721
H     2.578512     1.484716    -4.145784
O     3.457822     1.840224    -3.914568
H     3.783754     1.330428    -3.143060
H    -6.910463    -0.176607     7.249002
O    -7.417389     0.603374     7.527878
H    -8.045830     0.781910     6.827216
H    -2.714255    -9.873028    -0.768671
O    -2.653507    -8.932208    -0.934231
H    -3.558616    -8.565813    -0.690370
H    -10.086869     3.040658    -4.867950
O    -10.200478     2.124700    -4.580921
H    -10.410492     2.214199    -3.630389
H    -2.016370    -2.990531     4.629505
O    -2.890045    -3.431329     4.708110
H    -2.888210    -4.053497     3.955217
H    -0.132027    -7.958299     2.519434
O     0.696806    -7.743356     2.960648
H     1.411816    -8.042087     2.371239
H     6.767027    -2.317729     6.349936
O     7.214717    -3.029097     5.887290
H     6.586243    -3.765602     5.857062
H    -5.207711    -1.960073     6.973874
O    -5.887221    -1.465552     6.490990
H    -5.877008    -1.848314     5.584091
H     0.803999     3.001091    -7.152890
O     1.721738     2.671206    -7.212667
H     1.705163     1.920063    -7.834082
H    -3.905579     8.802797     6.629260
O    -3.913466     8.793520     5.671884
H    -4.038712     7.863839     5.412216
H    -2.076149     10.304372    -2.800995
O    -2.980039     10.482194    -3.098284
H    -2.914201     11.112360    -3.815093
H     9.460399    -4.013123     3.993902
O     9.184981    -4.687607     4.622322
H     8.760159    -4.211266     5.346562
H    -0.744325    -6.023736    -5.814941
O    -0.037886    -6.586972    -5.482147
H     0.795500    -6.125714    -5.708284
H     1.833863     8.292012     0.588452
O     1.524501     8.607569    -0.289169
H     2.335658     8.644189    -0.825090
H     3.469048     2.904915    -6.717039
O     4.299729     2.618524    -6.311296
H     4.060755     2.349985    -5.399254
H     3.731449     7.133062    -1.311453
O     3.934481     8.067746    -1.531687
H     4.297875     8.007050    -2.427089
H     4.362622    -0.038451    -7.954480
O     4.744897     0.113733    -7.088339
H     4.563292     1.046889    -6.849437
H     6.041936     1.949189    -0.540490
O     6.602178     2.138679    -1.306821
H     7.428742     1.661393    -1.115439
H     6.705254    -8.421083    -1.613585
O     7.336045    -8.213671    -2.355414
H     7.702680    -9.048904    -2.640528
H    -5.308637    -5.819126    -5.354065
O    -5.928874    -5.149915    -5.668720
H    -5.380495    -4.382390    -5.913924
H     0.694154     7.230872     7.556808
O    -0.221400     7.250612     7.896487
H    -0.741654     7.265692     7.053887
H    -8.901393    -2.862043    -4.043610
O    -9.421811    -2.053254    -3.877444
H    -9.141165    -1.391849    -4.513640
H    -2.396289    -5.995044    -2.107404
O    -3.276555    -5.711519    -2.371965
H    -3.468972    -6.091838    -3.254240
H    -2.993842    -5.927034    -5.369983
O    -3.589564    -6.534766    -4.889905
H    -3.105404    -7.353408    -4.721758
H    -1.423151     3.692739    -7.011168
O    -0.880073     2.939362    -6.739181
H    -1.119332     2.150639    -7.282908
H    -0.239411     0.377763    -8.232097
O    -1.133916     0.613420    -7.944231
H    -1.303266     0.094235    -7.142195
H    -10.429281     4.030745    -2.707127
O    -10.491626     3.255260    -2.134072
H    -9.659134     3.233497    -1.630172
H     4.601370     4.107941     1.651754
O     4.398525     3.188339     1.939464
H     5.112174     2.611978     1.653492
H     6.474012     1.392617    -4.284371
O     6.176431     0.772305    -3.584545
H     6.211976     1.273106    -2.744149
H     9.648089    -2.207023    -0.992443
O     9.918579    -1.997263    -1.895150
H     9.114801    -1.662818    -2.335611
H     9.972530    -3.314320    -3.157139
O     9.701919    -3.970915    -3.826176
H     9.303071    -3.468371    -4.547161
H    -7.677571    -8.586407    -1.580860
O    -6.941567    -7.991519    -1.717000
H    -7.320819    -7.079139    -1.710425
H     4.143872     6.074555    -3.899092
O     4.804288     6.777332    -3.822079
H     5.642226     6.325641    -3.687821
H     0.095426    -8.191645    -5.181922
O     0.121730    -9.173645    -5.044061
H     0.267107    -9.542676    -5.915282
H    -2.318427    -8.683475    -2.663840
O    -2.090692    -8.424527    -3.576307
H    -1.445647    -9.044269    -3.935721
H     2.196514    -10.824001    -3.459307
O     2.148809    -9.869414    -3.440232
H     1.359734    -9.603132    -3.963268
H     6.818680     3.323746    -4.653324
O     6.873321     2.641080    -5.350085
H     6.076381     2.769801    -5.886757
H    -3.493594    -3.671150     7.750426
O    -3.606744    -2.885104     7.217502
H    -3.364645    -3.130631     6.298330
H    -0.657664    -3.393570    -6.715148
O    -0.028512    -2.661326    -6.730766
H    -0.509371    -1.884451    -6.391110
H     0.699987     0.519512     8.749385
O     0.710481    -0.172613     8.086912
H    -0.205652    -0.486306     8.012069
H    -5.855683     7.343973    -4.273604
O    -6.361006     6.720756    -4.827624
H    -6.643241     5.993212    -4.230074
H    -4.297082     9.087547    -3.305759
O    -4.830414     8.290921    -3.191452
H    -4.416715     7.816881    -2.451986
H    -9.733211     5.764434    -4.633587
O    -10.264066     4.959793    -4.461884
H    -11.147105     5.157403    -4.775982
H     2.874790     6.681002     6.023607
O     1.910735     6.722912     6.144005
H     1.641620     5.781899     6.031037
H     4.807338     8.566051    -0.013143
O     5.130491     8.572524     0.905761
H     5.540409     7.710013     1.038746
H     4.144824    -7.435562    -4.339408
O     3.383558    -7.724705    -4.874869
H     3.107294    -8.563982    -4.492063
H     0.406251     8.697154     4.162964
O     1.083082     8.051594     3.934473
H     1.316411     7.566821     4.752014
H     5.225621     4.190901    -3.231515
O     6.187435     4.162720    -3.184666
H     6.402147     3.586207    -2.434715
H    -2.505506    -1.493404     7.584054
O    -1.996419    -0.697621     7.799073
H    -2.625499    -0.071314     8.168395
H    -9.049826     7.908629    -4.151393
O    -8.990480     7.319230    -4.904747
H    -8.034019     7.156250    -5.045288
H     3.568937    -8.957789     1.106784
O     2.893170    -8.325398     1.356551
H     3.368548    -7.517746     1.628078
H     3.599511     8.199436     1.742471
O     2.811656     7.634118     1.863859
H     2.368854     7.875644     2.690283
N     1.680557     4.628630     10.629885
H     2.489550     4.828987     10.149332
H     1.376116     3.775775     10.270514
