36
Coordinates from ORCA-job grain_mol_opt.QMRegion
  H   -4.61098351502102     -5.11902159450783     -1.51410181033230
  O   -5.34780441973225     -4.82574787493309     -0.93446995981448
  H   -5.09841682124656     -5.16758477576641     -0.05206692025146
  H   -5.84175725669509     -8.07674031478555     -0.27575802675682
  O   -5.13037233644129     -8.20397248047079      0.38313215930284
  H   -5.03462008395242     -7.34371512390992      0.83163044941986
  H   -6.86041535043021     -5.25490642132615     -1.34341128845290
  O   -7.77838291933184     -5.53767561745332     -1.60798901188838
  H   -7.88308886910829     -5.09874826454697     -2.48383362686718
  H   -0.94365970312414     -7.16407104286104     -3.09262121149792
  O   -0.50126412279463     -6.44963287113074     -2.59949341147301
  H   0.40357087021189     -6.35833064112912     -2.99384988128582
  H   -6.99801484459168     -3.41580645013638     -3.44007609143465
  O   -7.60141588565205     -4.05665692129500     -3.88726157270023
  H   -7.08243647778090     -4.38999240489502     -4.65212583732988
  H   -2.73776380143560     -9.77443434887999     -0.54967343489158
  O   -2.84489431802605     -8.85064833681548     -0.79070339815748
  H   -3.74842313970899     -8.60863977354356     -0.44384552841323
  H   -5.38673043667370     -5.68142014480182     -5.65839765789424
  O   -5.99130832994070     -4.97528149115481     -5.92946610869618
  H   -5.38255640590854     -4.22282890527043     -6.09159087188386
  H   -2.43668639727264     -5.81389304227064     -2.21637971071715
  O   -3.35575584197796     -5.67423058851825     -2.48167499737694
  H   -3.44513390825559     -5.97957045502063     -3.41361995718546
  H   -2.97397719560470     -5.81652315948001     -5.53484645352890
  O   -3.55777601798827     -6.45977824692197     -5.07701064856195
  H   -2.98645144299751     -7.23702136239224     -4.90621779413413
  H   -7.65546161466664     -8.62087847558254     -1.68041473888871
  O   -6.91923505984364     -8.00738747962633     -1.75416109745574
  H   -7.33874025665645     -7.08990355398271     -1.76209972440790
  H   -2.87379261170361     -8.75069094748163     -3.36683266522309
  O   -2.09798927362000     -8.36579971995953     -3.82079123838861
  H   -1.57579910837475     -9.07505610635440     -4.21529093247809
  O   -4.83235881258383     -8.99510946408576     -3.45482605882047
  H   -5.09449983573891     -8.68603934795554     -4.32711617595606
  H   -5.51043078207024     -8.61583742056617     -2.86234277400950
