603

H     0.201523     3.019945    -0.684882
O     0.724734     2.351450    -1.177310
H     1.663527     2.480999    -0.903656
H    -0.072340    -1.312429     3.151409
O     0.318413    -0.612770     2.605421
H    -0.159363     0.200812     2.837932
H    -2.397581     2.397729    -0.541889
O    -2.187372     1.928807     0.283085
H    -2.200683     0.980617     0.059648
H    -4.660926     0.536807     2.179050
O    -4.978227    -0.396577     2.192325
H    -4.470838    -0.875106     1.528502
H     0.066320    -0.318021     0.949484
O    -0.132466    -0.082405     0.022591
H     0.208050     0.813637    -0.099132
H    -0.149281    -3.581659     3.781531
O    -0.429110    -2.751260     4.200935
H     0.216987    -2.579224     4.902421
H    -4.885628     2.518956     1.323983
O    -4.246269     2.110364     1.939369
H    -3.403196     2.092666     1.427013
H    -3.248960     3.882332    -2.219917
O    -2.511504     3.285621    -1.988190
H    -2.152030     2.997566    -2.847376
H    -0.119171    -3.814205     0.507285
O     0.219360    -2.995458     0.923834
H    -0.568436    -2.509707     1.235152
H    -2.374144    -1.546853     2.469962
O    -2.186426    -2.014367     1.629569
H    -2.442967    -1.427468     0.899303
H     2.076606    -1.454217    -1.120935
O     2.307994    -1.704377    -0.202629
H     1.519413    -2.132996     0.181235
H    -1.388932     1.816630     1.907304
O    -1.482211     1.419978     2.783600
H    -1.467327     2.132926     3.447913
H     0.211874    -2.718281    -1.571053
O    -0.544556    -2.107479    -1.626037
H    -0.364630    -1.380592    -0.992843
H    -3.429868    -2.937863    -0.388425
O    -2.715977    -3.430886    -0.813651
H    -2.003523    -2.802006    -1.031445
H     2.774518     0.124924     2.931599
O     2.873275    -0.056076     3.893668
H     2.964183     0.837387     4.297019
H    -3.531819     6.366814    -0.554590
O    -3.294218     7.028388    -1.255986
H    -3.152634     7.874336    -0.787087
H     3.903492     0.578058     1.183405
O     2.953014     0.395954     1.299673
H     2.716462    -0.357495     0.721224
H    -5.779695     0.826417    -1.607219
O    -4.869413     1.154646    -1.483271
H    -4.980115     1.983902    -0.972812
H    -1.213781     5.389453     2.200008
O    -1.838295     4.641712     2.084473
H    -1.915506     4.224121     2.947575
H     3.493573     2.755507     0.419231
O     3.245292     2.711228    -0.519755
H     3.578827     1.868549    -0.869311
H     1.497485    -4.709316    -2.245098
O     1.560482    -3.930611    -1.673617
H     2.354843    -3.469892    -2.025947
H    -0.917882    -0.100470    -2.548401
O    -0.287135     0.553791    -2.875264
H    -0.025061     1.136790    -2.139419
H     1.704928    -4.694922    -0.174619
O     1.811299    -5.330185     0.569767
H     1.349696    -6.142527     0.274242
H    -1.122966    -3.150950    -2.887067
O    -1.049682    -3.860739    -3.549379
H    -0.886140    -4.701783    -3.074340
H    -2.781234     3.303727     4.697640
O    -1.800048     3.301698     4.663510
H    -1.506812     2.901291     5.500281
H     0.960001     5.031294     4.066400
O     0.013700     5.262752     4.118327
H    -0.457420     4.459475     4.377422
H    -1.725626    -4.662306    -0.366037
O    -0.960394    -5.201619    -0.079370
H    -1.306684    -5.889449     0.498462
H    -3.919969     5.815420    -2.608571
O    -4.270338     4.980926    -2.937885
H    -4.114312     4.945073    -3.905802
H    -2.425869    -3.698636     1.939918
O    -2.444204    -4.602461     2.316510
H    -1.504145    -4.839996     2.457135
H    -4.693286    -2.998656    -2.883811
O    -3.846652    -3.231773    -3.301719
H    -3.505705    -4.021204    -2.836388
H     0.340150     1.373748     4.610959
O     0.844862     2.134073     4.275791
H     0.893947     2.793825     4.981894
H    -4.648360    -5.187224    -1.565530
O    -5.351063    -4.832612    -0.994017
H    -5.138293    -5.184467    -0.108406
H     2.335125    -6.496969    -4.027150
O     2.001246    -6.165177    -3.173411
H     2.432962    -6.741371    -2.510416
H     0.466041    -3.391701    -4.012620
O     1.273606    -3.026032    -4.426219
H     0.968171    -2.652394    -5.280134
H     1.967334    -1.757302     2.982182
O     2.122831    -2.688528     2.766645
H     1.437536    -2.903569     2.099528
H    -3.011718    -1.827477    -3.209940
O    -2.590521    -0.940898    -3.147180
H    -3.245775    -0.295079    -3.466473
H    -3.192219     4.964819     1.070356
O    -3.974469     5.336742     0.615433
H    -4.389746     5.895549     1.320866
H     0.876358     2.247783     2.585474
O     0.976941     2.241649     1.614253
H     1.704604     1.618953     1.450912
H     0.188194     5.645889    -0.768696
O     0.708841     6.307495    -1.278829
H     0.850801     7.108142    -0.724229
H     0.339821     7.029973     2.578333
O    -0.022250     6.647973     1.761629
H     0.642325     5.977566     1.501030
H    -2.478280     0.208340     3.338533
O    -2.699710    -0.605219     3.844427
H    -1.939076    -0.643307     4.466225
H    -0.892680     0.551802     6.022344
O    -0.618615     0.031466     5.248549
H     0.095711    -0.570899     5.535865
H     0.714909    -5.001248     1.985182
O     0.172295    -5.109835     2.789677
H     0.318136    -6.029827     3.063431
H    -2.111078    -8.099229     0.455299
O    -1.789583    -7.609916     1.240187
H    -2.576148    -7.299691     1.696380
H    -0.382669     6.850074    -2.337757
O    -1.129639     7.268572    -2.837602
H    -1.919286     7.142553    -2.273537
H    -1.114767     4.299532     0.565564
O    -0.742253     4.359685    -0.330756
H    -1.448649     4.116116    -0.962597
H    -4.409579     2.739139     3.501019
O    -4.408548     2.910977     4.465307
H    -4.490866     2.028453     4.875736
H     2.028501    -3.585035     4.247372
O     1.964600    -4.055692     5.101468
H     2.472039    -3.518112     5.731040
H     4.692230    -3.200134     0.841504
O     4.531603    -3.125693    -0.124985
H     3.672169    -2.649636    -0.209225
H    -2.719425    -0.762778    -1.352628
O    -3.048377    -0.491917    -0.479156
H    -3.848312     0.034089    -0.687025
H    -1.609949    -0.778022    -4.632567
O    -1.106582    -0.553983    -5.436377
H    -0.397330     0.043001    -5.149800
H     1.797595    -1.729861    -3.376828
O     1.889347    -0.981461    -2.754886
H     1.112248    -0.404900    -2.887714
H     3.667231    -3.126297     2.552912
O     4.626472    -3.354376     2.480491
H     4.681857    -4.314458     2.607860
H     3.432518    -6.124432     3.129886
O     3.787967    -5.924089     2.229594
H     3.050022    -5.580739     1.685807
H    -3.342628     1.591505    -4.182754
O    -4.188005     1.121229    -3.990995
H    -4.405179     1.268559    -3.034340
H    -5.083077     4.134029     0.058873
O    -5.521325     3.267647    -0.044269
H    -6.451954     3.386477    -0.324877
H     6.736323    -1.190053    -1.364166
O     5.964323    -1.039835    -0.812116
H     5.545818    -1.907606    -0.613420
H     4.597314    -3.181096    -2.469220
O     3.729179    -3.010494    -2.884788
H     3.731277    -3.629929    -3.640545
H     4.438345    -2.292822     5.622641
O     4.095759    -2.757436     6.416508
H     4.431601    -3.662289     6.336091
H    -0.756631     6.334620     5.063687
O    -1.353783     6.910849     5.600914
H    -1.367742     7.787251     5.158174
H     4.700222    -0.145819    -1.469043
O     3.932155     0.395471    -1.732301
H     3.240492    -0.206406    -2.061806
H    -0.744393     4.506684    -4.046365
O    -1.527699     5.048791    -4.254909
H    -1.376537     5.916267    -3.833878
H     0.658883     3.189841    -2.665362
O     0.664813     3.564929    -3.574588
H     0.714226     2.800532    -4.158734
H    -5.378604    -5.204009     1.800220
O    -4.681993    -5.797750     1.443514
H    -3.841191    -5.382591     1.714890
H     7.883370    -1.702196    -4.034630
O     7.625907    -1.387463    -3.135197
H     7.138398    -0.544326    -3.293070
H     3.696278    -5.091989    -5.286285
O     4.459038    -4.715167    -4.809276
H     4.847553    -5.423508    -4.262637
H    -3.782351     0.012801     4.932805
O    -4.383570     0.477382     5.564629
H    -5.043111    -0.180799     5.857705
H     3.469935    -5.951821    -0.514933
O     4.343510    -5.704196    -0.829910
H     4.417923    -4.741411    -0.689062
H     5.003354    -0.349777    -4.160805
O     4.469014    -1.062102    -4.549889
H     4.141896    -1.645062    -3.832244
H    -1.173719     1.555460    -3.940263
O    -1.825069     2.174101    -4.327968
H    -1.466874     2.504742    -5.174524
H     4.891061    -6.332324    -2.309082
O     5.224837    -6.656772    -3.174428
H     6.042032    -7.138617    -2.986661
H     8.744976    -5.101330    -2.914022
O     8.054467    -5.518399    -2.354299
H     8.088928    -6.475856    -2.455313
H     2.336483     4.711415     0.441970
O     1.757068     4.694347     1.213053
H     1.400574     3.773825     1.292301
H    -4.411960    -2.641359     4.233420
O    -5.306274    -2.302924     4.030247
H    -5.169910    -1.522224     3.454069
H    -5.842490    -3.207208     1.321155
O    -6.306066    -3.763115     1.989797
H    -6.116926    -3.326974     2.839945
H     1.686109     3.469975     6.854781
O     1.062618     3.984196     6.320264
H     0.279697     4.137645     6.891798
H     5.003945    -2.170991     3.616819
O     5.023874    -1.451571     4.279812
H     4.211687    -0.896224     4.122148
H     2.395564    -5.578155     4.844735
O     2.776395    -6.462049     4.586363
H     2.031961    -7.044419     4.412556
H     2.350403    -4.473104    -6.721860
O     2.111343    -4.991519    -5.936224
H     1.822436    -4.293918    -5.290205
H     6.443731    -4.110498    -0.500402
O     7.197511    -4.511647    -0.036389
H     7.704921    -4.935472    -0.756509
H    -1.726326     4.490628     7.692056
O    -0.827575     4.590002     8.077323
H    -0.647230     5.549313     8.100077
H    -5.121884     5.671466    -5.606986
O    -4.514450     4.907833    -5.626577
H    -3.756889     5.121975    -6.192392
H     3.278490    -2.554554    -8.433820
O     3.192382    -3.084443    -7.630744
H     4.069445    -3.058848    -7.204684
H    -0.664986     8.812864    -2.294430
O    -0.542716     9.642238    -1.776885
H     0.219865     9.469369    -1.200028
H     2.068564    -0.913485     5.210343
O     1.495763    -1.438360     5.798672
H     1.590209    -1.092030     6.695413
H     5.208074    -2.041331    -5.692637
O     5.556929    -2.808000    -6.211924
H     5.278843    -3.597363    -5.696243
H     5.700453    -5.214062     4.691308
O     5.178230    -5.128218     5.517987
H     4.457296    -5.761003     5.433412
H    -3.973296     1.144406     7.003461
O    -3.781498     1.621714     7.846485
H    -4.657804     2.007136     8.106820
H    -1.856845     9.602229    -0.763030
O    -2.717203     9.475906    -0.288332
H    -3.328768     10.103523    -0.676983
H    -5.950865     4.671345    -2.947654
O    -6.859710     4.550350    -3.290976
H    -6.768800     3.847501    -3.967296
H     0.099766    -7.074901    -1.136924
O     0.563792    -7.509547    -0.388753
H    -0.115005    -7.705454     0.260144
H    -7.639475     3.773150    -1.980543
O    -7.900961     3.187047    -1.239778
H    -7.756576     2.278053    -1.577448
H     3.975794    -0.889208     6.985050
O     3.983716     0.074956     6.974594
H     4.795669     0.364735     6.542238
H     2.255175     5.785461    -1.191692
O     3.190898     5.493787    -1.077006
H     3.367920     4.952427    -1.869329
H     6.556032    -5.934600     0.678337
O     6.188320    -6.669809     1.214195
H     5.283172    -6.393430     1.439338
H    -3.870076     4.729009     7.771594
O    -3.303334     4.265589     7.113135
H    -3.495784     3.322176     7.225343
H     5.768645    -7.951884     0.147564
O     5.481515    -8.640638    -0.488272
H     4.651580    -8.317235    -0.883055
H    -0.557023     2.043654     7.687859
O    -1.190485     1.977543     6.953111
H    -2.058681     1.835753     7.350187
H    -6.380191    -0.133592     1.060342
O    -6.702547    -0.219775     0.148250
H    -7.621319    -0.489990     0.169570
H    -5.369550    -3.078919    -0.583856
O    -5.117520    -2.374947     0.039737
H    -5.688485    -1.602821    -0.147993
H     4.314751     5.570929     0.308217
O     4.648618     5.673545     1.213214
H     3.953695     6.183891     1.664708
H    -9.043233    -1.765357    -2.249743
O    -8.493858    -1.562689    -1.465388
H    -8.620894    -2.297481    -0.825263
H    -5.527356     3.449265    -5.534536
O    -6.043479     2.737789    -5.119390
H    -5.375653     2.155205    -4.703734
H     3.187514    -0.904004    -5.655627
O     2.331838    -1.019846    -6.121881
H     2.409903    -1.871350    -6.593172
H     8.114995    -1.365124    -6.030562
O     8.124155    -2.228068    -5.572173
H     7.267911    -2.629097    -5.821908
H     7.619433     0.974954    -6.315207
O     7.431626     0.125671    -6.726840
H     6.450222     0.074468    -6.763212
H    -7.857643    -3.705149     0.936298
O    -8.535832    -3.600242     0.251234
H    -8.437615    -4.361466    -0.347987
H    -2.412342     8.727602     1.276953
O    -2.261189     8.140346     2.030913
H    -1.490542     7.587496     1.809054
H    -4.446997     6.428747     3.485036
O    -4.617798     6.852994     2.627752
H    -3.854908     7.439382     2.486996
H     3.398341     3.432588    -3.586025
O     3.244227     4.401915    -3.493843
H     2.279401     4.465716    -3.601853
H    -6.117798    -1.620813    -3.436342
O    -6.200264    -2.204985    -2.656442
H    -6.982440    -1.897945    -2.144519
H     6.468333     1.051578     4.734554
O     6.074045     1.591355     5.436618
H     6.261407     2.509625     5.143927
H     1.359304     1.702405    -5.827884
O     1.164680     1.107274    -5.073127
H     1.533055     0.245029    -5.341594
H    -2.489163     2.969407     10.477395
O    -2.276513     2.061431     10.205682
H    -2.874063     1.860201     9.473623
H     7.628698    -0.497973     3.080546
O     6.878355     0.077460     3.248874
H     6.186656    -0.522869     3.629305
H    -5.653295    -8.068794    -0.688373
O    -4.919136    -8.136100    -0.041599
H    -4.923229    -7.317993     0.478932
H    -5.181464    -0.128497    -4.711684
O    -5.803433    -0.837936    -4.947442
H    -6.640647    -0.395713    -5.148713
H     1.888311    -0.220788    -7.517701
O     1.685712     0.251420    -8.361494
H     2.260900    -0.156023    -9.014552
H     4.870587    -1.416171    -9.304985
O     3.946254    -1.185788    -9.587839
H     3.924757    -1.310495    -10.535951
H     7.566733    -2.569075     4.200829
O     7.713366    -2.606395     3.241381
H     7.220817    -3.398213     2.970802
H     6.725385    -5.895631     2.691267
O     6.787070    -5.219503     3.391698
H     7.663194    -5.303611     3.809091
H    -1.825889     8.942630     3.480471
O    -1.578355     9.249083     4.378251
H    -2.427180     9.381651     4.833636
H    -7.392431     1.548031    -5.253333
O    -7.966450     0.802914    -5.008798
H    -8.868821     1.201533    -4.931759
H     6.925128    -1.104277    -8.405760
O     6.343724    -1.826135    -8.668255
H     6.115654    -2.274696    -7.835629
H    -1.681969     6.218077    -7.035074
O    -2.079880     5.393529    -6.759373
H    -1.830303     5.264497    -5.795750
H     0.000477     3.316498     9.015821
O     0.198128     2.397317     9.272522
H    -0.599941     2.133487     9.779520
H     6.757760    -2.790380    -2.704134
O     6.227881    -3.534151    -2.361215
H     6.696183    -4.345338    -2.606912
H    -4.221129    -3.088666    -4.845112
O    -4.423326    -2.943369    -5.800121
H    -4.919913    -2.105711    -5.779891
H     1.980532     2.189504     8.459431
O     2.643995     2.301336     7.768909
H     3.066941     1.431252     7.654851
H    -6.904252    -5.217438    -1.387890
O    -7.820134    -5.486876    -1.633049
H    -7.954520    -5.086968    -2.516462
H    -3.829292     5.254100     5.687224
O    -3.797310     6.021461     5.094975
H    -2.863511     6.316708     5.188346
H    -7.885557     0.069737    -1.966188
O    -7.395942     0.792240    -2.381759
H    -7.625743     0.780760    -3.334337
H     5.837671     0.124643     0.408552
O     5.615288     0.847018     1.028376
H     6.126044     0.653614     1.841402
H    -6.215888     3.310659     7.390009
O    -6.087524     2.793979     8.219560
H    -6.687219     2.032055     8.132786
H     2.282197    -8.084714    -0.831507
O     2.961761    -8.071664    -1.524893
H     2.738997    -8.786218    -2.139441
H    -2.817310    -3.623436    -6.171377
O    -2.060136    -4.231473    -6.049725
H    -1.722027    -4.032136    -5.144372
H    -5.644978     3.757693     5.302403
O    -6.294483     4.154893     5.918779
H    -6.131013     5.098944     5.904272
H    -0.910897    -7.118040    -3.073068
O    -0.470739    -6.383794    -2.594026
H     0.453538    -6.345464    -2.954887
H     4.444411     2.018673     5.122832
O     3.502595     2.257416     5.002670
H     3.118608     2.274614     5.884665
H     4.108025     4.661114     6.290665
O     4.187958     5.390427     5.671477
H     3.620424     5.148068     4.901095
H     2.763592     3.616569     3.914596
O     2.585090     4.556210     3.746942
H     2.465521     4.652879     2.780347
H     9.393159     0.205072    -1.075713
O     8.587752     0.368987    -0.581449
H     8.412106    -0.449371    -0.087429
H    -2.102148     5.329018     10.640540
O    -2.823711     4.700415     10.873192
H    -3.041925     4.879173     11.788106
H     7.975314    -3.013395     0.328953
O     8.395975    -2.166014     0.582751
H     8.330362    -2.159682     1.545044
H     5.369397     3.664949     3.516048
O     6.025550     3.932120     4.181666
H     5.612500     4.650782     4.682166
H    -4.210172     5.028254     9.775655
O    -4.843656     5.177305     9.053570
H    -5.454859     4.428150     9.052734
H    -7.005878    -3.499195    -3.485339
O    -7.623844    -4.112753    -3.935682
H    -7.099064    -4.568214    -4.624312
H     0.025771     6.138946     10.758898
O    -0.839071     6.469404     10.511268
H    -0.723741     6.898388     9.644104
H     2.587572     1.479533    -4.110300
O     3.465123     1.834478    -3.872136
H     3.786766     1.320612    -3.101372
H    -6.970827    -0.219076     7.220152
O    -7.479968     0.559532     7.499175
H    -8.103347     0.741299     6.794831
H    -2.732550    -9.884616    -0.822032
O    -2.672468    -8.942604    -0.981094
H    -3.577857    -8.579072    -0.739438
H    -10.071611     3.051376    -4.903515
O    -10.187571     2.134483    -4.620308
H    -10.403252     2.221209    -3.670644
H    -2.064617    -3.026694     4.618318
O    -2.939568    -3.466796     4.688736
H    -2.932811    -4.086446     3.933944
H    -0.172161    -7.987881     2.497386
O     0.653436    -7.775492     2.945741
H     1.372651    -8.071918     2.360221
H     6.708813    -2.369465     6.393770
O     7.158833    -3.079843     5.931733
H     6.529322    -3.815134     5.894458
H    -5.269348    -2.003068     6.946990
O    -5.946224    -1.506485     6.462271
H    -5.929891    -1.885191     5.553853
H     0.833185     3.010552    -7.122520
O     1.750835     2.680376    -7.177776
H     1.737919     1.930706    -7.801468
H    -3.958501     8.757637     6.656709
O    -3.957294     8.753578     5.699343
H    -4.081710     7.825357     5.433562
H    -2.066515     10.298883    -2.756662
O    -2.968345     10.479264    -3.058713
H    -2.897148     11.112175    -3.772598
H     9.414347    -4.057542     4.047653
O     9.135780    -4.734419     4.672113
H     8.705767    -4.260823     5.395131
H    -0.409000    -6.826998    -6.474311
O     0.192982    -6.960526    -5.714349
H     0.959643    -6.372273    -5.886652
H     1.820867     8.268560     0.647490
O     1.517023     8.588579    -0.230577
H     2.331504     8.625955    -0.761440
H     3.495028     2.910368    -6.670222
O     4.323171     2.622920    -6.260167
H     4.078261     2.349336    -5.351225
H     3.728865     7.115798    -1.245230
O     3.933860     8.051280    -1.460594
H     4.303017     7.993527    -2.353859
H     4.393351    -0.030335    -7.913622
O     4.772480     0.120376    -7.045768
H     4.588313     1.052148    -6.804488
H     6.029692     1.926250    -0.481875
O     6.594721     2.119024    -1.243955
H     7.419503     1.639728    -1.049818
H     6.689359    -8.439678    -1.594681
O     7.325585    -8.229952    -2.331290
H     7.690133    -9.064872    -2.619969
H    -5.446179    -5.804945    -5.458756
O    -6.079207    -5.180945    -5.838392
H    -5.549628    -4.371738    -5.978091
H     0.680168     7.178849     7.586681
O    -0.221290     7.206605     7.946422
H    -0.777034     7.219406     7.129080
H    -8.896288    -2.854284    -4.099886
O    -9.416748    -2.046725    -3.931155
H    -9.132988    -1.381125    -4.561561
H    -2.413705    -5.802925    -2.090133
O    -3.328888    -5.742799    -2.376499
H    -3.409824    -6.063397    -3.295456
H    -2.921985    -5.857732    -5.370184
O    -3.536325    -6.508190    -4.983598
H    -3.011462    -7.296778    -4.762495
H    -1.394870     3.704136    -6.990942
O    -0.854929     2.948864    -6.718282
H    -1.090195     2.163069    -7.267941
H    -0.205448     0.392938    -8.218242
O    -1.102226     0.628987    -7.936790
H    -1.277807     0.110018    -7.136080
H    -10.426424     4.033230    -2.740001
O    -10.492543     3.254576    -2.171689
H    -9.663474     3.230404    -1.662115
H     4.578630     4.077118     1.710266
O     4.370763     3.156645     1.990629
H     5.086652     2.580414     1.709975
H     6.484015     1.385370    -4.225502
O     6.181605     0.762880    -3.529834
H     6.212685     1.259995    -2.687103
H     9.634256    -2.231136    -0.930169
O     9.910714    -2.017257    -1.830120
H     9.109687    -1.680931    -2.274260
H     9.970730    -3.329300    -3.097657
O     9.704122    -3.982932    -3.771146
H     9.309282    -3.477245    -4.492183
H    -7.692425    -8.591538    -1.648807
O    -6.956643    -7.996009    -1.783489
H    -7.335417    -7.083825    -1.772080
H     4.156090     6.067520    -3.834749
O     4.816579     6.769498    -3.751017
H     5.653181     6.316357    -3.613197
H     0.217956    -8.484611    -5.308544
O     0.053120    -9.417026    -4.956118
H     0.164218    -10.007166    -5.705554
H    -2.316394    -8.658100    -2.619267
O    -2.052973    -8.394242    -3.526386
H    -1.458632    -9.074837    -3.888369
H     2.216794    -10.833608    -3.456089
O     2.165951    -9.879219    -3.441126
H     1.367231    -9.624382    -3.960306
H     6.832360     3.317793    -4.584447
O     6.891044     2.638305    -5.283905
H     6.097211     2.769198    -5.824654
H    -3.559556    -3.719278     7.727262
O    -3.675164    -2.932781     7.195553
H    -3.423540    -3.173293     6.277701
H    -0.508992    -3.167728    -6.753987
O     0.128985    -2.440769    -6.741167
H    -0.379072    -1.713116    -6.318225
H     0.643786     0.468778     8.750195
O     0.651604    -0.247228     8.110989
H    -0.270426    -0.536921     8.024082
H    -5.839527     7.349017    -4.264739
O    -6.342481     6.728680    -4.824196
H    -6.628835     5.999092    -4.231244
H    -4.285375     9.086509    -3.280283
O    -4.820493     8.290201    -3.172215
H    -4.411405     7.812482    -2.432495
H    -9.716718     5.774035    -4.655087
O    -10.249379     4.969023    -4.490640
H    -11.130470     5.169471    -4.808384
H     2.766298     6.519863     6.126167
O     1.806157     6.616004     6.224207
H     1.463176     5.702241     6.123545
H     4.798315     8.541808     0.065488
O     5.115921     8.544647     0.986355
H     5.523521     7.680881     1.118772
H     4.144943    -7.441892    -4.331825
O     3.385454    -7.726985    -4.871551
H     3.106798    -8.568422    -4.494696
H     0.372918     8.659220     4.217217
O     1.050913     8.014612     3.989931
H     1.278126     7.523382     4.805385
H     5.231840     4.179684    -3.168606
O     6.193312     4.151334    -3.115575
H     6.402987     3.570888    -2.367167
H    -2.574800    -1.541091     7.575241
O    -2.065010    -0.747058     7.793568
H    -2.691008    -0.120634     8.167126
H    -9.034302     7.916012    -4.159722
O    -8.970989     7.329208    -4.914778
H    -8.013766     7.166339    -5.050395
H     3.535080    -8.984456     1.102698
O     2.859141    -8.353218     1.354957
H     3.334287    -7.546840     1.630657
H     3.579692     8.169023     1.811751
O     2.789420     7.605418     1.925362
H     2.343562     7.842240     2.751355
N    -1.637230    -6.428894    -7.715183
H    -1.831505    -5.563802    -7.308453
H    -2.478071    -6.896592    -7.682103
