42

H     4.597446    -3.212881    -2.522734
O     3.735457    -2.948658    -2.906054
H     3.662259    -3.557352    -3.662426
H     7.819520    -1.613773    -4.115470
O     7.562570    -1.330409    -3.200927
H     7.068435    -0.479930    -3.341458
H     3.644575    -5.098889    -5.385132
O     4.419594    -4.721609    -4.916999
H     4.765345    -5.412868    -4.307531
H     4.817418    -6.290702    -2.272741
O     5.120468    -6.582003    -3.166662
H     5.994148    -6.992311    -3.033433
H     9.614106    -5.678894    -2.237357
O     9.201734    -6.070470    -1.460265
H     8.608433    -6.758085    -1.814206
H     6.833912    -4.236505    -0.892186
O     7.359364    -4.530230    -0.117105
H     8.106794    -5.015746    -0.524377
H     5.145836    -1.987657    -5.676759
O     5.510794    -2.740522    -6.210294
H     5.218619    -3.553439    -5.721285
H     8.069585    -1.207163    -6.137755
O     8.149525    -2.081140    -5.691517
H     7.269721    -2.480204    -5.880416
H     6.710818    -2.765353    -2.725945
O     6.288771    -3.608427    -2.438252
H     6.599244    -4.256137    -3.102137
H     6.692786    -8.378713    -1.594163
O     7.321299    -8.051170    -2.297860
H     7.571670    -8.838873    -2.788261
H     9.496908    -2.154069    -0.917249
O     9.833664    -1.914872    -1.799588
H     9.046430    -1.543523    -2.252912
H     9.965759    -3.173265    -3.084101
O     9.912065    -3.758464    -3.876647
H     9.766111    -3.147567    -4.611835
H     4.049586    -7.498767    -4.257099
O     3.338250    -7.740288    -4.883937
H     2.983110    -8.550689    -4.489625
N     7.623853    -5.170776    -4.246965
H     8.475918    -4.684330    -4.126755
H     7.455054    -5.164568    -5.192794
