45
Coordinates from ORCA-job grain_mol_opt.QMRegion
  H   -0.11564755209087     -1.27022045627891      3.07664459924166
  O   0.36349594780501     -0.57585167541941      2.59441071748032
  H   -0.09898995581640      0.24691687950322      2.83742558966671
  H   -0.30859519096714     -3.57197582648250      3.69874700769099
  O   -0.68767350111364     -2.77125843574299      4.09863779103796
  H   -0.43655654315601     -2.83140166054997      5.04965021711640
  H   1.98142870588803     -1.78579355083621      2.96241225688091
  O   2.07500408232762     -2.74306952887913      2.82889306392387
  H   1.46300659538486     -2.92984770184610      2.08645382032408
  H   -2.49132340475960      0.26794631617447      3.32745887717775
  O   -2.74880234118822     -0.55496441047257      3.80484334369020
  H   -1.99160925634705     -0.61635323460063      4.42489722891963
  H   -0.91182678357650      0.61975129035440      6.02092060445735
  O   -0.63334851494164      0.07471081627917      5.25839966687777
  H   0.15807785291654     -0.43487936793259      5.56471408655804
  H   0.65693823800803     -5.11212557264053      1.91303562807113
  O   0.14600438463989     -5.17535931435805      2.74617599075788
  H   0.24552637351014     -6.11134378475003      2.99975192240661
  H   1.91656351375514     -3.61062268911371      4.43431913941583
  O   2.02821520962037     -4.09268305576325      5.28094788092924
  H   2.71288289596696     -3.56114871875845      5.74910592346004
  H   4.54144122053116     -2.34550633586723      5.61719124467869
  O   4.22886942893573     -2.85268643747080      6.40663520200675
  H   4.59692713894024     -3.74563065936314      6.25740483563766
  H   2.34219176599625     -5.70434746600229      4.86721746665991
  O   2.73434072287305     -6.57070428920900      4.59528340829471
  H   2.00875304166094     -7.15405860371500      4.35047458369255
  H   2.10304410299137     -0.70168266956466      5.25401468240257
  O   1.57820550989653     -1.14197873312426      5.95020426785013
  H   1.72262318422435     -0.64280370871538      6.76885565713265
  H   -2.29541466493091     -3.17315474642972      4.41632526120260
  O   -3.15415775846370     -3.62265776305567      4.61818388147425
  H   -3.19792289086574     -4.27742360827024      3.89882856260275
  H   -3.61406365161117     -3.56550109321197      7.80825326536084
  O   -3.70200510293192     -2.88133402472112      7.14367506926679
  H   -3.50936080737089     -3.31365506095451      6.27692839933365
  H   0.58837260100104      0.51697529237099      8.96885242738129
  O   0.53569333757770     -0.27218214991631      8.41674595154926
  H   -0.42508557267215     -0.40669874043255      8.29344690026111
  H   -2.66341303362729     -1.45685500462238      7.57075541648590
  O   -2.18264362287148     -0.65733278143296      7.86683535354498
  H   -2.85515840374941     -0.08189692502349      8.24987865709456
  O   -0.23217693651075     -3.37710025727788      6.71776188962323
  H   0.63076332222211     -3.71124829746696      6.39627686612480
  H   0.01700256028609     -2.60004717418393      7.22988765644469
