603

H     0.211325     3.039792    -0.672759
O     0.733119     2.370199    -1.165577
H     1.672220     2.498713    -0.892604
H    -0.067572    -1.297586     3.158361
O     0.325085    -0.597922     2.613848
H    -0.151456     0.216360     2.846521
H    -2.388327     2.421291    -0.528367
O    -2.178883     1.950296     0.295733
H    -2.194859     1.002586     0.070277
H    -4.652885     0.560132     2.190209
O    -4.970553    -0.373075     2.204432
H    -4.467275    -0.851259     1.537215
H     0.072848    -0.299494     0.958262
O    -0.125696    -0.062881     0.031691
H     0.214981     0.833252    -0.089632
H    -0.147535    -3.567451     3.785604
O    -0.425511    -2.737307     4.206702
H     0.221625    -2.567510     4.907701
H    -4.875448     2.543504     1.338530
O    -4.236158     2.133974     1.953612
H    -3.393690     2.115212     1.440066
H    -3.238238     3.909003    -2.204771
O    -2.501796     3.310648    -1.973780
H    -2.143125     3.023107    -2.833432
H    -0.119859    -3.796062     0.511230
O     0.220937    -2.978866     0.928963
H    -0.565847    -2.491467     1.240601
H    -2.370213    -1.527213     2.477554
O    -2.181849    -1.993764     1.636999
H    -2.439641    -1.406739     0.907115
H     2.079216    -1.436837    -1.114997
O     2.311102    -1.689879    -0.197621
H     1.521676    -2.116649     0.186587
H    -1.379830     1.833992     1.918401
O    -1.472817     1.437510     2.794954
H    -1.455159     2.150641     3.458723
H     0.213707    -2.695213    -1.562712
O    -0.541670    -2.083233    -1.616734
H    -0.361145    -1.356448    -0.983578
H    -3.431376    -2.913932    -0.382347
O    -2.714596    -3.406995    -0.802761
H    -2.004074    -2.777014    -1.021990
H     2.781970     0.135005     2.938931
O     2.881152    -0.047163     3.900885
H     2.973556     0.845951     4.304528
H    -3.515356     6.392231    -0.537410
O    -3.278044     7.054950    -1.237309
H    -3.133189     7.899505    -0.766671
H     3.910655     0.589563     1.190690
O     2.960294     0.407464     1.308022
H     2.722217    -0.344026     0.727861
H    -5.773492     0.855882    -1.596089
O    -4.862730     1.182215    -1.469806
H    -4.972787     2.010905    -0.958431
H    -1.197457     5.409271     2.212713
O    -1.825205     4.662826     2.100359
H    -1.896786     4.242884     2.962709
H     3.503662     2.769362     0.429645
O     3.254737     2.725291    -0.509180
H     3.587235     1.882695    -0.859481
H     1.494131    -4.690340    -2.243856
O     1.559555    -3.913135    -1.670762
H     2.354375    -3.452620    -2.022316
H    -0.915172    -0.075858    -2.540912
O    -0.280469     0.575673    -2.865727
H    -0.019052     1.158394    -2.129339
H     1.703095    -4.678713    -0.172474
O     1.809605    -5.315650     0.570383
H     1.345528    -6.126518     0.274620
H    -1.222753    -3.256683    -2.872170
O    -1.050399    -3.940536    -3.532746
H    -0.924390    -4.787386    -3.063560
H    -2.769888     3.317528     4.710169
O    -1.788629     3.318444     4.678267
H    -1.494500     2.913596     5.512219
H     0.970829     5.046731     4.079733
O     0.026333     5.282075     4.134048
H    -0.446557     4.483028     4.400983
H    -1.726688    -4.640863    -0.363148
O    -0.961932    -5.182267    -0.078310
H    -1.309872    -5.868779     0.500108
H    -3.905774     5.843876    -2.591502
O    -4.257907     5.010104    -2.920724
H    -4.103239     4.974708    -3.888920
H    -2.425069    -3.678441     1.944560
O    -2.444153    -4.582301     2.321179
H    -1.504478    -4.821386     2.460798
H    -4.691685    -2.967916    -2.889421
O    -3.839792    -3.201642    -3.296149
H    -3.509119    -3.995311    -2.830804
H     0.350041     1.384391     4.620117
O     0.856858     2.143346     4.285438
H     0.906109     2.802940     4.991404
H    -4.652537    -5.157920    -1.561141
O    -5.353787    -4.803894    -0.987027
H    -5.140396    -5.158306    -0.102970
H     2.326539    -6.476176    -4.033085
O     1.990193    -6.147129    -3.179405
H     2.424640    -6.721079    -2.516304
H     0.469499    -3.371861    -3.998823
O     1.272368    -3.005849    -4.422416
H     0.952862    -2.633945    -5.270761
H     1.971883    -1.745552     2.987212
O     2.125789    -2.676872     2.770796
H     1.439678    -2.889941     2.103833
H    -3.010549    -1.798538    -3.201496
O    -2.587656    -0.912443    -3.136667
H    -3.242627    -0.266249    -3.456330
H    -3.177789     4.987681     1.086532
O    -3.959895     5.359665     0.631302
H    -4.376807     5.917758     1.335510
H     0.887078     2.261824     2.595902
O     0.986301     2.255571     1.624641
H     1.713776     1.633135     1.460258
H     0.202997     5.666706    -0.751629
O     0.724210     6.327172    -1.262112
H     0.869659     7.127581    -0.706928
H     0.361298     7.045109     2.606042
O    -0.011702     6.668702     1.793004
H     0.651412     6.000800     1.521419
H    -2.470554     0.226926     3.348713
O    -2.693551    -0.586310     3.854614
H    -1.932201    -0.627391     4.475063
H    -0.882430     0.563667     6.033174
O    -0.610197     0.044200     5.258553
H     0.103951    -0.559578     5.543513
H     0.713983    -4.985975     1.987321
O     0.172185    -5.094952     2.792224
H     0.316324    -6.015661     3.064321
H    -2.117825    -8.077871     0.457374
O    -1.794690    -7.590090     1.242398
H    -2.580540    -7.278064     1.698674
H    -0.366651     6.872870    -2.319516
O    -1.113228     7.292214    -2.819504
H    -1.902710     7.167549    -2.255022
H    -1.102466     4.319513     0.580352
O    -0.729794     4.379093    -0.315892
H    -1.436971     4.138671    -0.947988
H    -4.397897     2.759973     3.515054
O    -4.396971     2.929992     4.479990
H    -4.480478     2.046655     4.888483
H     2.030650    -3.575077     4.250216
O     1.966763    -4.046701     5.103822
H     2.475765    -3.510828     5.733570
H     4.693043    -3.190422     0.843252
O     4.531888    -3.115074    -0.123090
H     3.673470    -2.636797    -0.206122
H    -2.716537    -0.737640    -1.343737
O    -3.043560    -0.467666    -0.469136
H    -3.843379     0.059258    -0.675913
H    -1.612398    -0.751516    -4.623910
O    -1.105730    -0.536502    -5.428213
H    -0.395414     0.059818    -5.143719
H     1.798819    -1.708609    -3.371594
O     1.891982    -0.962003    -2.748403
H     1.115216    -0.383956    -2.879252
H     3.669168    -3.116821     2.555392
O     4.627995    -3.346545     2.482000
H     4.682042    -4.306744     2.608645
H     3.429991    -6.115599     3.128807
O     3.785234    -5.915326     2.228367
H     3.047732    -5.569114     1.685796
H    -3.337252     1.621726    -4.170082
O    -4.182573     1.151876    -3.978796
H    -4.399251     1.298078    -3.022088
H    -5.071802     4.159709     0.073665
O    -5.511878     3.294084    -0.026973
H    -6.441910     3.414089    -0.309807
H     6.739584    -1.180241    -1.360477
O     5.967866    -1.030168    -0.808042
H     5.548274    -1.897522    -0.610417
H     4.596762    -3.165429    -2.466334
O     3.728680    -2.993639    -2.881643
H     3.731111    -3.612382    -3.637812
H     4.443310    -2.288414     5.625805
O     4.100294    -2.753295     6.419431
H     4.434744    -3.658560     6.337852
H    -0.789249     6.409312     4.926556
O    -1.382904     6.952616     5.504641
H    -1.525083     7.816607     5.056274
H     4.704870    -0.132897    -1.462958
O     3.937665     0.409936    -1.725241
H     3.244559    -0.190018    -2.054997
H    -0.733824     4.532139    -4.031376
O    -1.516245     5.075725    -4.238999
H    -1.363398     5.942402    -3.816557
H     0.668077     3.211362    -2.652636
O     0.674676     3.587411    -3.561414
H     0.721373     2.823742    -4.146622
H    -5.379908    -5.179881     1.804898
O    -4.683957    -5.775375     1.449560
H    -3.842893    -5.360061     1.719454
H     7.884350    -1.690394    -4.032276
O     7.627359    -1.376833    -3.132513
H     7.141216    -0.532440    -3.288869
H     3.700203    -5.068736    -5.285240
O     4.463379    -4.695998    -4.804794
H     4.847521    -5.407268    -4.259123
H    -3.773399     0.031873     4.943810
O    -4.372679     0.496196     5.578116
H    -5.033887    -0.161324     5.869166
H     3.465612    -5.937592    -0.514253
O     4.338412    -5.691458    -0.832639
H     4.415743    -4.729126    -0.689412
H     5.004542    -0.333125    -4.157509
O     4.468482    -1.044325    -4.546771
H     4.142277    -1.626975    -3.828469
H    -1.166372     1.580800    -3.929997
O    -1.816802     2.201524    -4.315475
H    -1.459359     2.533053    -5.161890
H     4.884610    -6.319156    -2.310673
O     5.216445    -6.644782    -3.176452
H     6.034212    -7.126289    -2.990245
H     8.740610    -5.092818    -2.916907
O     8.049320    -5.509889    -2.358017
H     8.083093    -6.467243    -2.459965
H     2.348852     4.728403     0.457753
O     1.768496     4.709969     1.228124
H     1.411900     3.789815     1.304692
H    -4.408328    -2.620862     4.241222
O    -5.302096    -2.279999     4.040081
H    -5.164799    -1.499791     3.463322
H    -5.841366    -3.181586     1.328249
O    -6.304118    -3.737948     1.997290
H    -6.114807    -3.302343     2.847485
H     1.696932     3.456672     6.876168
O     1.074285     3.971103     6.339852
H     0.292563     4.136794     6.909188
H     5.007988    -2.165031     3.619844
O     5.029205    -1.446842     4.284076
H     4.218093    -0.889590     4.127130
H     2.395011    -5.569480     4.844720
O     2.774223    -6.453681     4.584932
H     2.028693    -7.034648     4.411094
H     2.255217    -4.511831    -6.784545
O     2.086111    -4.999801    -5.968654
H     1.822529    -4.308109    -5.313276
H     6.442431    -4.101441    -0.500716
O     7.195434    -4.505211    -0.037708
H     7.701978    -4.928508    -0.758705
H    -1.707613     4.507096     7.706036
O    -0.808456     4.625876     8.085416
H    -0.642422     5.586001     8.091592
H    -5.110053     5.705513    -5.588554
O    -4.503409     4.941271    -5.609119
H    -3.746020     5.154996    -6.175235
H     3.280100    -2.524679    -8.432305
O     3.192536    -3.057014    -7.630753
H     4.069468    -3.033259    -7.202492
H    -0.645892     8.835902    -2.272547
O    -0.523194     9.663972    -1.753351
H     0.239178     9.489295    -1.176460
H     2.075622    -0.904749     5.215747
O     1.502498    -1.429103     5.804412
H     1.599290    -1.084488     6.701411
H     5.206614    -2.022506    -5.689952
O     5.551714    -2.789297    -6.211971
H     5.277601    -3.578803    -5.693935
H     5.700163    -5.210747     4.690071
O     5.178468    -5.124944     5.517065
H     4.456581    -5.756604     5.432206
H    -3.961407     1.161425     7.015446
O    -3.768483     1.639887     7.858040
H    -4.645120     2.023795     8.119837
H    -1.835702     9.624005    -0.737464
O    -2.696517     9.498438    -0.263042
H    -3.306343     10.127943    -0.651577
H    -5.939263     4.703044    -2.930429
O    -6.848443     4.584140    -3.273439
H    -6.759021     3.881658    -3.950546
H     0.093884    -7.056681    -1.134992
O     0.558238    -7.492741    -0.387436
H    -0.120686    -7.686816     0.261906
H    -7.628677     3.806218    -1.963950
O    -7.890095     3.219722    -1.223430
H    -7.748220     2.310789    -1.562833
H     3.984028    -0.885312     6.990164
O     3.993319     0.078884     6.981327
H     4.805278     0.368092     6.548429
H     2.269441     5.802512    -1.176205
O     3.204422     5.507769    -1.062849
H     3.379787     4.968156    -1.856392
H     6.552127    -5.927627     0.675386
O     6.183250    -6.663416     1.209709
H     5.279101    -6.385422     1.436927
H    -3.853071     4.739706     7.793383
O    -3.284160     4.279947     7.133595
H    -3.478358     3.335684     7.239291
H     5.761681    -7.943021     0.142710
O     5.472660    -8.630287    -0.494122
H     4.643596    -8.304076    -0.888028
H    -0.543296     2.051880     7.700343
O    -1.178186     1.992631     6.966157
H    -2.045730     1.845951     7.362683
H    -6.376229    -0.106670     1.073278
O    -6.696798    -0.190244     0.160581
H    -7.615734    -0.460355     0.178757
H    -5.368589    -3.050702    -0.577047
O    -5.115802    -2.348520     0.048551
H    -5.684949    -1.575126    -0.139590
H     4.329552     5.582543     0.322941
O     4.659919     5.682253     1.229393
H     3.966760     6.200983     1.676098
H    -9.040812    -1.728651    -2.240071
O    -8.492374    -1.527410    -1.454352
H    -8.619749    -2.263875    -0.816523
H    -5.518893     3.483059    -5.518800
O    -6.036494     2.772871    -5.103505
H    -5.370028     2.187104    -4.690019
H     3.181917    -0.884818    -5.650893
O     2.325531    -1.004469    -6.115973
H     2.410127    -1.853664    -6.589199
H     8.115074    -1.351013    -6.028298
O     8.122928    -2.214894    -5.571575
H     7.266173    -2.614151    -5.821329
H     7.623169     0.989695    -6.309610
O     7.433242     0.141363    -6.722379
H     6.451816     0.092289    -6.757846
H    -7.857033    -3.676579     0.943221
O    -8.535952    -3.569287     0.259441
H    -8.438791    -4.328888    -0.342227
H    -2.420945     8.755412     1.253609
O    -2.258702     8.240285     2.061857
H    -1.476777     7.685607     1.877800
H    -4.436116     6.446101     3.498261
O    -4.604343     6.875017     2.644285
H    -3.837857     7.456847     2.500865
H     3.407311     3.450493    -3.575117
O     3.255073     4.419854    -3.482443
H     2.290151     4.485761    -3.588555
H    -6.113426    -1.592414    -3.430853
O    -6.196359    -2.171252    -2.646524
H    -6.979715    -1.863076    -2.137566
H     6.477837     1.053448     4.741538
O     6.084601     1.593077     5.444302
H     6.273558     2.511357     5.151678
H     1.364868     1.727424    -5.817811
O     1.170075     1.131831    -5.063391
H     1.533063     0.268523    -5.333016
H    -2.471895     2.980472     10.490743
O    -2.261572     2.073045     10.217032
H    -2.860760     1.872810     9.485865
H     7.635426    -0.495304     3.084252
O     6.885908     0.080752     3.253961
H     6.193571    -0.519035     3.633738
H    -5.661024    -8.040530    -0.687130
O    -4.925766    -8.109645    -0.041212
H    -4.928373    -7.292083     0.480318
H    -5.174920    -0.106844    -4.705084
O    -5.792829    -0.818249    -4.943931
H    -6.630670    -0.375900    -5.141825
H     1.890142    -0.194444    -7.509957
O     1.688258     0.277041    -8.353985
H     2.264179    -0.128966    -9.007267
H     4.869933    -1.393023    -9.300765
O     3.944753    -1.163524    -9.582421
H     3.923818    -1.281656    -10.531407
H     7.570642    -2.568128     4.201680
O     7.716523    -2.604664     3.242100
H     7.222406    -3.395260     2.970917
H     6.723186    -5.891906     2.688499
O     6.785874    -5.216660     3.389537
H     7.662147    -5.302133     3.806496
H    -2.272602     9.140630     3.622064
O    -2.204810     9.367197     4.572945
H    -3.094826     9.212844     4.959941
H    -7.386451     1.581512    -5.239584
O    -7.961703     0.837957    -4.993681
H    -8.863066     1.238330    -4.917445
H     6.924679    -1.084129    -8.402755
O     6.342064    -1.804937    -8.665642
H     6.114416    -2.254149    -7.833276
H    -1.670100     6.249083    -7.017107
O    -2.068421     5.424274    -6.742779
H    -1.819288     5.293906    -5.779134
H     0.021294     3.331220     9.031106
O     0.210876     2.409290     9.280288
H    -0.586493     2.146950     9.789322
H     6.757486    -2.778464    -2.702482
O     6.226724    -3.522213    -2.360737
H     6.694330    -4.333468    -2.607460
H    -4.078118    -3.062126    -4.932773
O    -4.232973    -2.949909    -5.897509
H    -4.779544    -2.156379    -5.953701
H     1.996195     2.189174     8.473054
O     2.658276     2.303253     7.781738
H     3.080531     1.433278     7.662819
H    -6.907731    -5.186629    -1.381574
O    -7.823749    -5.455440    -1.626253
H    -7.957625    -5.053236    -2.509353
H    -3.800187     5.251686     5.723251
O    -3.793897     6.011359     5.118930
H    -2.866061     6.335375     5.189135
H    -7.880578     0.103555    -1.954196
O    -7.390430     0.826558    -2.368276
H    -7.619245     0.815428    -3.321418
H     5.843819     0.133542     0.414076
O     5.622653     0.855402     1.034773
H     6.133562     0.660798     1.847307
H    -6.200670     3.329322     7.406983
O    -6.072348     2.812619     8.236473
H    -6.672760     2.051146     8.148918
H     2.275537    -8.067469    -0.834278
O     2.952158    -8.055838    -1.530891
H     2.726192    -8.769931    -2.143588
H    -2.747164    -3.952602    -6.186694
O    -1.993995    -4.519574    -5.955149
H    -1.716641    -4.227709    -5.058417
H    -5.630710     3.777979     5.317981
O    -6.276487     4.174785     5.938664
H    -6.124428     5.120295     5.912459
H    -1.021672    -7.105783    -3.152471
O    -0.548256    -6.436291    -2.624794
H     0.358992    -6.367797    -3.006475
H     4.456945     2.023567     5.130392
O     3.515218     2.264064     5.012356
H     3.132057     2.279286     5.894480
H     4.139192     4.649615     6.299561
O     4.218312     5.383310     5.685498
H     3.645033     5.151680     4.915141
H     2.777112     3.626285     3.924962
O     2.599424     4.566881     3.762951
H     2.478707     4.667872     2.796615
H     9.398937     0.210640    -1.071554
O     8.593258     0.374163    -0.577674
H     8.417174    -0.444278    -0.084047
H    -2.094828     5.362875     10.637857
O    -2.795542     4.719639     10.886931
H    -3.007929     4.900337     11.802856
H     7.976258    -3.008291     0.329526
O     8.398522    -2.161983     0.583917
H     8.333394    -2.156379     1.546256
H     5.384768     3.670051     3.523872
O     6.042469     3.932158     4.190059
H     5.633625     4.653373     4.690440
H    -4.192280     5.040863     9.793602
O    -4.823685     5.192295     9.070305
H    -5.438362     4.445724     9.068440
H    -7.010888    -3.463754    -3.471650
O    -7.632308    -4.075385    -3.919098
H    -7.112235    -4.518214    -4.621566
H    -0.003827     6.346408     10.752436
O    -0.881296     6.567103     10.437153
H    -0.758462     6.971098     9.559542
H     2.593222     1.500297    -4.100888
O     3.472365     1.851935    -3.863618
H     3.792601     1.337761    -3.092560
H    -6.960854    -0.198203     7.233032
O    -7.467385     0.581869     7.512914
H    -8.092547     0.763883     6.810187
H    -2.746967    -9.861986    -0.815909
O    -2.683047    -8.920471    -0.976204
H    -3.588429    -8.553032    -0.735120
H    -10.063594     3.092827    -4.885338
O    -10.181425     2.175625    -4.604041
H    -10.396284     2.260401    -3.654174
H    -2.061196    -3.010731     4.624297
O    -2.936719    -3.449533     4.695167
H    -2.931910    -4.067769     3.939121
H    -0.177995    -7.971941     2.496560
O     0.648855    -7.761979     2.943822
H     1.366482    -8.058818     2.356655
H     6.714505    -2.369825     6.395330
O     7.162774    -3.080569     5.932178
H     6.531916    -3.814675     5.894595
H    -5.262813    -1.984907     6.956083
O    -5.938730    -1.485713     6.472749
H    -5.923941    -1.863134     5.563569
H     0.839431     3.038010    -7.109655
O     1.756596     2.706054    -7.166450
H     1.741414     1.958292    -7.791913
H    -4.570336     8.518654     6.733125
O    -4.550735     8.478888     5.771992
H    -4.389304     7.527632     5.569172
H    -2.046085     10.324644    -2.731994
O    -2.947526     10.506362    -3.034543
H    -2.875137     11.140638    -3.747092
H     9.415706    -4.059756     4.045702
O     9.135714    -4.737081     4.669044
H     8.707460    -4.263694     5.393242
H    -0.739380    -5.990018    -5.830062
O    -0.036247    -6.557077    -5.496760
H     0.799558    -6.096541    -5.715442
H     1.843400     8.283345     0.667979
O     1.534899     8.602626    -0.210040
H     2.348248     8.643210    -0.742007
H     3.501783     2.932653    -6.659557
O     4.329389     2.641240    -6.251155
H     4.084811     2.368838    -5.341701
H     3.744324     7.131076    -1.229688
O     3.950421     8.065849    -1.445989
H     4.319393     8.008007    -2.339176
H     4.394456    -0.006077    -7.908496
O     4.772478     0.140014    -7.039465
H     4.591955     1.072291    -6.796065
H     6.037764     1.936627    -0.474431
O     6.602525     2.128189    -1.236997
H     7.426918     1.648199    -1.043318
H     6.680248    -8.429914    -1.600961
O     7.315698    -8.220337    -2.338246
H     7.681099    -9.055138    -2.626173
H    -5.305536    -5.776227    -5.393295
O    -5.922385    -5.103803    -5.707794
H    -5.370686    -4.336277    -5.945548
H     0.670689     7.131424     7.598354
O    -0.239192     7.324865     7.884980
H    -0.752807     7.232621     7.044276
H    -8.897764    -2.817402    -4.086519
O    -9.417208    -2.008251    -3.918957
H    -9.131201    -1.344085    -4.549870
H    -2.411709    -5.977326    -2.131547
O    -3.289947    -5.690499    -2.399326
H    -3.478241    -6.065251    -3.284830
H    -2.991047    -5.889936    -5.396931
O    -3.591074    -6.498890    -4.923764
H    -3.109828    -7.319581    -4.757235
H    -1.386690     3.734670    -6.976389
O    -0.847109     2.978292    -6.705783
H    -1.085454     2.193233    -7.255094
H    -0.204619     0.423337    -8.209079
O    -1.100264     0.659419    -7.925111
H    -1.275106     0.136604    -7.126605
H    -10.415521     4.071842    -2.721432
O    -10.483225     3.293734    -2.152545
H    -9.653252     3.266847    -1.644684
H     4.588042     4.087994     1.722660
O     4.381848     3.166120     2.001594
H     5.097574     2.591214     1.718121
H     6.489190     1.399137    -4.218812
O     6.186364     0.775507    -3.524230
H     6.218226     1.271610    -2.680806
H     9.635795    -2.226854    -0.929607
O     9.911803    -2.013416    -1.829802
H     9.111444    -1.673820    -2.272607
H     9.969203    -3.323211    -3.098382
O     9.700978    -3.975351    -3.772778
H     9.307155    -3.467693    -4.492948
H    -7.702513    -8.558104    -1.648364
O    -6.964216    -7.964460    -1.777287
H    -7.341048    -7.051094    -1.767770
H     4.168929     6.084311    -3.820835
O     4.830959     6.784967    -3.738727
H     5.666711     6.330769    -3.599483
H     0.091153    -8.163521    -5.204506
O     0.114076    -9.146400    -5.072137
H     0.263521    -9.510768    -5.944628
H    -2.337587    -8.662984    -2.702444
O    -2.104534    -8.399847    -3.612362
H    -1.458760    -9.018980    -3.971505
H     2.175777    -10.810869    -3.485177
O     2.130499    -9.856287    -3.461052
H     1.345034    -9.584932    -3.986897
H     6.840792     3.330999    -4.575179
O     6.897740     2.652278    -5.275706
H     6.103972     2.786107    -5.815804
H    -3.556014    -3.704717     7.732952
O    -3.668836    -2.916631     7.202989
H    -3.419308    -3.156621     6.284324
H    -0.641055    -3.355161    -6.715308
O    -0.009999    -2.624465    -6.723656
H    -0.490564    -1.848210    -6.382094
H     0.654375     0.473790     8.761192
O     0.660655    -0.238470     8.118157
H    -0.261406    -0.528361     8.031953
H    -5.824571     7.382222    -4.243729
O    -6.328737     6.763523    -4.803923
H    -6.615803     6.033295    -4.212024
H    -4.266927     9.116172    -3.258166
O    -4.803471     8.320746    -3.150625
H    -4.394282     7.841356    -2.412014
H    -9.704229     5.814360    -4.634157
O    -10.238250     5.010258    -4.469779
H    -11.118792     5.211745    -4.788364
H     2.853610     6.368094     6.256524
O     1.887912     6.470932     6.347659
H     1.561964     5.544064     6.250541
H     4.819583     8.551917     0.080867
O     5.144302     8.554264     0.998926
H     5.543857     7.687112     1.132055
H     4.137739    -7.422489    -4.335486
O     3.378916    -7.706939    -4.876941
H     3.098278    -8.547434    -4.500053
H     0.959682     8.751480     4.486871
O     1.188314     7.920292     4.027958
H     1.447443     7.306476     4.738656
H     5.242203     4.195187    -3.157296
O     6.203690     4.163108    -3.106160
H     6.412627     3.582814    -2.357488
H    -2.566095    -1.528104     7.583127
O    -2.056418    -0.734195     7.802731
H    -2.682721    -0.108927     8.177474
H    -9.017985     7.954255    -4.136866
O    -8.956048     7.368617    -4.892939
H    -7.999166     7.203951    -5.028952
H     3.528364    -8.972990     1.098834
O     2.852507    -8.340643     1.348448
H     3.328096    -7.535504     1.627281
H     3.598282     8.185317     1.832533
O     2.810821     7.618590     1.935108
H     2.365322     7.834880     2.774336
N     0.289155     10.058265     5.604989
H     0.249258     9.675198     6.488909
H    -0.635714     10.028409     5.293179
