603

H     0.192010     3.020875    -0.672462
O     0.717889     2.355208    -1.166201
H     1.655283     2.483932    -0.888165
H    -0.093729    -1.327319     3.142382
O     0.300664    -0.625905     2.601522
H    -0.179576     0.186319     2.834930
H    -2.407126     2.396828    -0.541033
O    -2.197277     1.924381     0.281957
H    -2.213940     0.977038     0.055046
H    -4.679763     0.521151     2.166772
O    -4.995564    -0.412119     2.174504
H    -4.485274    -0.887397     1.510768
H     0.053071    -0.323799     0.947840
O    -0.138852    -0.085340     0.020163
H     0.196821     0.813304    -0.095045
H    -0.167219    -3.601346     3.762886
O    -0.449693    -2.773517     4.185313
H     0.193928    -2.603047     4.889421
H    -4.901156     2.509339     1.320070
O    -4.262538     2.099701     1.935316
H    -3.418831     2.084286     1.424687
H    -3.253031     3.888355    -2.215132
O    -2.514973     3.292069    -1.984046
H    -2.153677     3.007159    -2.843421
H    -0.130831    -3.818458     0.487302
O     0.207129    -3.002801     0.910240
H    -0.581721    -2.517430     1.220528
H    -2.393322    -1.561202     2.455003
O    -2.198924    -2.025188     1.613430
H    -2.456508    -1.436878     0.884651
H     2.070411    -1.450399    -1.121047
O     2.299645    -1.706408    -0.203874
H     1.509108    -2.134920     0.176255
H    -1.407243     1.807264     1.909422
O    -1.499062     1.405406     2.783401
H    -1.492373     2.114961     3.451694
H     0.209000    -2.710834    -1.580359
O    -0.546948    -2.099837    -1.636292
H    -0.370757    -1.374980    -0.999693
H    -3.441171    -2.940715    -0.415581
O    -2.720913    -3.430283    -0.834507
H    -2.011487    -2.797452    -1.048593
H     2.752599     0.108841     2.941943
O     2.849015    -0.075481     3.903621
H     2.936555     0.817027     4.309523
H    -3.541886     6.365233    -0.541347
O    -3.301733     7.030477    -1.238927
H    -3.162802     7.874090    -0.765294
H     3.888985     0.571221     1.198467
O     2.938498     0.387610     1.311309
H     2.703633    -0.362466     0.727989
H    -5.784318     0.828171    -1.624088
O    -4.874683     1.156673    -1.495494
H    -4.988252     1.983581    -0.981793
H    -1.233995     5.376102     2.219715
O    -1.856849     4.628444     2.096950
H    -1.939529     4.207306     2.957883
H     3.480612     2.752129     0.442767
O     3.237120     2.712362    -0.497627
H     3.571166     1.870883    -0.849333
H     1.496064    -4.701429    -2.262911
O     1.558031    -3.926101    -1.686940
H     2.353149    -3.462768    -2.033852
H    -0.920800    -0.090751    -2.555175
O    -0.285804     0.562956    -2.875140
H    -0.028930     1.143613    -2.135597
H     1.696746    -4.696018    -0.190522
O     1.802006    -5.335526     0.550328
H     1.340204    -6.146038     0.250041
H    -1.221368    -3.270625    -2.897768
O    -1.044432    -3.952182    -3.559564
H    -0.919267    -4.800132    -3.092186
H    -2.810989     3.278333     4.702034
O    -1.829875     3.275545     4.670932
H    -1.543325     2.873792     5.509230
H     0.931960     5.008816     4.091625
O    -0.014287     5.240479     4.139235
H    -0.487755     4.437560     4.395769
H    -1.731319    -4.663388    -0.397104
O    -0.966660    -5.205421    -0.112910
H    -1.315969    -5.892751     0.463721
H    -3.922976     5.822990    -2.598230
O    -4.271742     4.989792    -2.932394
H    -4.112925     4.958175    -3.899949
H    -2.439545    -3.712578     1.903887
O    -2.455616    -4.621741     2.268596
H    -1.516128    -4.854811     2.420006
H    -4.690723    -2.987854    -2.927331
O    -3.836843    -3.219202    -3.331491
H    -3.506743    -4.013334    -2.866611
H     0.314026     1.350217     4.612693
O     0.823945     2.111457     4.287580
H     0.860712     2.769460     4.996147
H    -4.652705    -5.182919    -1.605465
O    -5.357527    -4.832114    -1.033913
H    -5.147610    -5.187700    -0.149348
H     2.339323    -6.479837    -4.054928
O     1.999160    -6.154168    -3.201518
H     2.431929    -6.729419    -2.538494
H     0.476066    -3.379359    -4.017480
O     1.279915    -3.010752    -4.437095
H     0.962708    -2.636795    -5.285393
H     1.946301    -1.772379     2.980472
O     2.104080    -2.702342     2.760676
H     1.421042    -2.914480     2.090269
H    -3.010501    -1.814954    -3.229640
O    -2.589027    -0.928403    -3.161397
H    -3.244512    -0.282277    -3.480180
H    -3.207860     4.956201     1.078557
O    -3.987334     5.330699     0.621276
H    -4.405604     5.887411     1.327423
H     0.855913     2.234226     2.597556
O     0.961237     2.233029     1.626675
H     1.688810     1.610399     1.463471
H     0.178628     5.646389    -0.745046
O     0.701624     6.310337    -1.249989
H     0.840476     7.108564    -0.691279
H     0.319010     7.016202     2.608585
O    -0.039383     6.638438     1.788385
H     0.625346     5.968202     1.528083
H    -2.503710     0.190106     3.328503
O    -2.720955    -0.626728     3.829745
H    -1.960895    -0.663892     4.452211
H    -0.916183     0.526914     6.003748
O    -0.640948    -0.001972     5.234921
H     0.069284    -0.603890     5.529767
H     0.700737    -5.011880     1.963895
O     0.156141    -5.124921     2.766368
H     0.300507    -6.046490     3.035540
H    -2.120293    -8.104387     0.412798
O    -1.800342    -7.619493     1.200852
H    -2.588056    -7.308647     1.654741
H    -0.387039     6.857409    -2.310443
O    -1.132151     7.278083    -2.811038
H    -1.923980     7.149272    -2.250388
H    -1.128134     4.294469     0.579194
O    -0.752266     4.358486    -0.315556
H    -1.456697     4.117543    -0.950742
H    -4.437513     2.710422     3.506094
O    -4.438089     2.877548     4.471211
H    -4.515675     1.993780     4.878714
H     2.005491    -3.605851     4.236574
O     1.939389    -4.081255     5.087933
H     2.441417    -3.544875     5.722687
H     4.679810    -3.205242     0.842140
O     4.522773    -3.127105    -0.124695
H     3.663549    -2.650484    -0.209817
H    -2.725871    -0.759026    -1.367552
O    -3.055651    -0.492896    -0.492931
H    -3.856682     0.032228    -0.699428
H    -1.609011    -0.761078    -4.643288
O    -1.098746    -0.542769    -5.444583
H    -0.391014     0.053967    -5.154779
H     1.799592    -1.715542    -3.379818
O     1.889437    -0.970468    -2.754345
H     1.111528    -0.393976    -2.885551
H     3.648933    -3.138277     2.550244
O     4.608465    -3.366401     2.480020
H     4.663319    -4.326927     2.603842
H     3.413416    -6.140074     3.113124
O     3.771958    -5.936068     2.214786
H     3.035961    -5.589682     1.670291
H    -3.340397     1.607652    -4.187411
O    -4.185365     1.135545    -4.001154
H    -4.406510     1.277803    -3.044582
H    -5.094956     4.129823     0.058240
O    -5.532006     3.263594    -0.050620
H    -6.462036     3.383101    -0.332757
H     6.731495    -1.184848    -1.346763
O     5.957424    -1.037505    -0.796920
H     5.538301    -1.906141    -0.603574
H     4.596920    -3.169981    -2.467927
O     3.730352    -2.998390    -2.886408
H     3.736784    -3.614962    -3.644301
H     4.409537    -2.318444     5.626393
O     4.065574    -2.785696     6.418149
H     4.400122    -3.690670     6.334371
H    -0.786297     6.310129     5.087671
O    -1.382237     6.887193     5.624663
H    -1.392644     7.764947     5.185273
H     4.695059    -0.140780    -1.454319
O     3.928239     0.401756    -1.718341
H     3.237227    -0.198333    -2.052381
H    -0.741834     4.521872    -4.030495
O    -1.524118     5.064833    -4.240328
H    -1.375465     5.930228    -3.814165
H     0.656693     3.199861    -2.650250
O     0.667101     3.579026    -3.557828
H     0.716605     2.817087    -4.145097
H    -5.394331    -5.212849     1.759726
O    -4.699413    -5.808563     1.402170
H    -3.857746    -5.394448     1.671204
H     7.888198    -1.684031    -4.015706
O     7.627271    -1.373724    -3.115953
H     7.139873    -0.529931    -3.271510
H     3.715133    -5.065988    -5.296381
O     4.475960    -4.693588    -4.811908
H     4.858936    -5.405876    -4.266765
H    -3.753778    -0.019449     4.869091
O    -4.347070     0.427830     5.528581
H    -5.036054    -0.223065     5.738089
H     3.462952    -5.950108    -0.528933
O     4.336670    -5.701710    -0.843117
H     4.411782    -4.739685    -0.696681
H     5.006080    -0.331900    -4.148325
O     4.473165    -1.042842    -4.542242
H     4.144777    -1.628336    -3.827166
H    -1.169636     1.569531    -3.939646
O    -1.819311     2.190352    -4.326267
H    -1.458916     2.524763    -5.170190
H     4.889746    -6.323735    -2.320867
O     5.225920    -6.645992    -3.186260
H     6.043694    -7.126702    -2.998039
H     8.746278    -5.088447    -2.907715
O     8.053478    -5.508573    -2.353044
H     8.089413    -6.465527    -2.457894
H     2.323277     4.707234     0.469286
O     1.742184     4.686860     1.238945
H     1.384749     3.766192     1.313086
H    -4.434036    -2.666076     4.209100
O    -5.328651    -2.317900     4.026657
H    -5.194860    -1.536072     3.452624
H    -5.854554    -3.212702     1.293359
O    -6.316573    -3.771517     1.960514
H    -6.133561    -3.335386     2.812220
H     1.647045     3.436019     6.875754
O     1.028000     3.953784     6.340291
H     0.242830     4.103480     6.911179
H     4.981251    -2.187587     3.623243
O     4.998603    -1.471257     4.289562
H     4.186512    -0.915448     4.131512
H     2.371261    -5.601655     4.826193
O     2.752832    -6.484574     4.565277
H     2.008829    -7.065975     4.386443
H     2.275005    -4.507389    -6.799651
O     2.103815    -4.998190    -5.985913
H     1.835943    -4.309054    -5.329494
H     6.436352    -4.108725    -0.497407
O     7.188488    -4.512455    -0.032956
H     7.698447    -4.932603    -0.753364
H    -1.744202     4.464612     7.698305
O    -0.849328     4.547501     8.104808
H    -0.661392     5.505076     8.129283
H    -5.114577     5.691882    -5.601520
O    -4.506169     4.929054    -5.622358
H    -3.747142     5.146034    -6.184911
H     3.303166    -2.513149    -8.436933
O     3.213462    -3.048427    -7.637597
H     4.088501    -3.024256    -7.205564
H    -0.669728     8.819829    -2.260412
O    -0.548615     9.647503    -1.739789
H     0.211350     9.471942    -1.160345
H     2.041529    -0.937494     5.221009
O     1.468644    -1.472147     5.800344
H     1.538546    -1.127992     6.699964
H     5.217740    -2.016043    -5.685224
O     5.566592    -2.780463    -6.208251
H     5.291622    -3.572160    -5.693971
H     5.675327    -5.235650     4.686468
O     5.150340    -5.153513     5.511691
H     4.429747    -5.785965     5.421861
H    -4.013483     1.217353     6.973739
O    -3.881086     1.875426     7.701006
H    -4.783001     2.190612     7.952665
H    -1.866805     9.602941    -0.730299
O    -2.728677     9.474717    -0.259171
H    -3.339384     10.103026    -0.648029
H    -5.952808     4.679510    -2.948994
O    -6.859916     4.561014    -3.297488
H    -6.766396     3.859993    -3.975540
H     0.096105    -7.073819    -1.167361
O     0.558212    -7.511796    -0.419502
H    -0.123109    -7.708795     0.226500
H    -7.644205     3.776811    -1.992498
O    -7.908240     3.187986    -1.255022
H    -7.762207     2.280160    -1.595436
H     3.938442    -0.922267     6.992869
O     3.945960     0.042139     6.991792
H     4.757727     0.335249     6.561167
H     2.247293     5.788816    -1.159363
O     3.183028     5.497156    -1.043438
H     3.362427     4.959204    -1.837454
H     6.544779    -5.938476     0.673030
O     6.175192    -6.676607     1.203567
H     5.269647    -6.400932     1.428179
H    -3.860678     4.894523     7.794978
O    -3.290814     4.457007     7.121695
H    -3.520845     3.507944     7.167255
H     5.759960    -7.953592     0.130877
O     5.474862    -8.639499    -0.509195
H     4.646756    -8.313704    -0.905513
H    -0.572797     2.054734     7.646198
O    -1.190829     1.940466     6.904867
H    -2.030662     1.693306     7.303914
H    -6.393350    -0.142753     1.038412
O    -6.712100    -0.225670     0.124582
H    -7.631490    -0.494091     0.142325
H    -5.378606    -3.079353    -0.617176
O    -5.126591    -2.379589     0.011102
H    -5.697288    -1.606178    -0.173180
H     4.301592     5.567998     0.346329
O     4.632770     5.666634     1.252775
H     3.936120     6.174726     1.704288
H    -9.044858    -1.760382    -2.291166
O    -8.498961    -1.560288    -1.503540
H    -8.627771    -2.297465    -0.867008
H    -5.519252     3.468365    -5.539944
O    -6.037391     2.756045    -5.129119
H    -5.371830     2.170368    -4.713979
H     3.190578    -0.882450    -5.650825
O     2.336457    -1.001919    -6.120077
H     2.424119    -1.849748    -6.595131
H     8.126242    -1.338113    -6.009711
O     8.133942    -2.203386    -5.555652
H     7.278852    -2.603406    -5.809979
H     7.631030     1.002547    -6.285543
O     7.444586     0.155224    -6.701934
H     6.463402     0.104237    -6.741618
H    -7.869392    -3.713215     0.893242
O    -8.544968    -3.607048     0.206136
H    -8.443356    -4.365117    -0.396588
H    -2.428080     8.719414     1.303571
O    -2.279202     8.129367     2.055711
H    -1.508361     7.576762     1.834194
H    -4.474542     6.414531     3.486531
O    -4.641550     6.842145     2.629526
H    -3.877248     7.428342     2.496629
H     3.399871     3.446816    -3.560548
O     3.245242     4.415648    -3.465136
H     2.280555     4.479408    -3.575436
H    -6.113021    -1.613642    -3.470007
O    -6.197900    -2.195968    -2.688587
H    -6.983003    -1.890469    -2.180447
H     6.440081     1.029300     4.761805
O     6.043507     1.565910     5.465006
H     6.231145     2.485502     5.175976
H     1.369470     1.727038    -5.817182
O     1.173087     1.129063    -5.065148
H     1.538112     0.266980    -5.335923
H    -2.675586     2.993887     10.443268
O    -2.497994     2.083499     10.140181
H    -2.971566     2.016072     9.285475
H     7.607401    -0.512417     3.104078
O     6.856632     0.062440     3.272403
H     6.163321    -0.539405     3.647421
H    -5.659210    -8.069382    -0.745372
O    -4.926541    -8.139053    -0.096568
H    -4.933370    -7.323043     0.427494
H    -5.171977    -0.122604    -4.735696
O    -5.787241    -0.834348    -4.980260
H    -6.625356    -0.393028    -5.179290
H     1.904783    -0.188618    -7.513098
O     1.705645     0.285094    -8.356547
H     2.284864    -0.118068    -9.008662
H     4.894462    -1.376082    -9.295488
O     3.970022    -1.147423    -9.580222
H     3.952938    -1.263272    -10.529562
H     7.542612    -2.587916     4.214259
O     7.692822    -2.621174     3.255202
H     7.201050    -3.411643     2.979380
H     6.707833    -5.908411     2.686806
O     6.766678    -5.235279     3.390196
H     7.641331    -5.320686     3.810456
H    -1.850691     8.925426     3.510384
O    -1.606049     9.229785     4.409647
H    -2.456617     9.356632     4.863910
H    -7.384693     1.562674    -5.273542
O    -7.959724     0.817168    -5.033183
H    -8.861945     1.215865    -4.958517
H     6.944807    -1.066194    -8.388101
O     6.364807    -1.787382    -8.655664
H     6.134424    -2.239469    -7.825579
H    -1.669233     6.246546    -7.014767
O    -2.067165     5.420038    -6.745061
H    -1.821986     5.286777    -5.780835
H    -0.123862     3.359732     8.981416
O     0.153851     2.459053     9.261831
H    -0.630421     2.158021     9.757787
H     6.758058    -2.778351    -2.693960
O     6.227250    -3.524096    -2.356758
H     6.697111    -4.333776    -2.604299
H    -4.068844    -3.075300    -4.968427
O    -4.219896    -2.960192    -5.933476
H    -4.767835    -2.167526    -5.989073
H     1.917814     2.126708     8.482485
O     2.583593     2.252642     7.797381
H     3.019528     1.390112     7.675538
H    -6.908406    -5.216147    -1.435248
O    -7.822857    -5.486374    -1.684539
H    -7.954142    -5.080904    -2.566507
H    -3.855340     5.250607     5.681612
O    -3.827261     6.014868     5.082953
H    -2.893916     6.308829     5.181343
H    -7.888503     0.074043    -1.993375
O    -7.398405     0.798800    -2.404564
H    -7.624239     0.789500    -3.358257
H     5.826285     0.122097     0.428325
O     5.601822     0.841869     1.050278
H     6.109320     0.645106     1.864477
H    -6.439142     3.351223     7.351110
O    -6.245663     2.948606     8.235284
H    -6.800372     2.162157     8.322969
H     2.277774    -8.081280    -0.861714
O     2.957760    -8.066741    -1.555023
H     2.735415    -8.779086    -2.171052
H    -2.731144    -3.959047    -6.219873
O    -1.977524    -4.525105    -5.987442
H    -1.704487    -4.235768    -5.088533
H    -5.682297     3.704185     5.312717
O    -6.344236     4.103094     5.915949
H    -6.171054     5.045887     5.910136
H    -1.011582    -7.118699    -3.189742
O    -0.541249    -6.450246    -2.658072
H     0.367194    -6.378599    -3.036042
H     4.415279     1.994117     5.148515
O     3.473975     2.233345     5.025582
H     3.084082     2.246265     5.904678
H     4.073518     4.632186     6.323613
O     4.157558     5.363481     5.707416
H     3.591916     5.125187     4.934131
H     2.736604     3.597340     3.938519
O     2.561174     4.538111     3.774868
H     2.443620     4.639357     2.808448
H     9.387024     0.209913    -1.042842
O     8.579515     0.371185    -0.551200
H     8.402369    -0.449156    -0.061077
H    -2.142696     5.286200     10.650973
O    -2.872713     4.665516     10.881728
H    -3.090604     4.846221     11.796066
H     7.964806    -3.015318     0.342279
O     8.384676    -2.169124     0.601056
H     8.315416    -2.166586     1.563126
H     5.346172     3.647507     3.549704
O     5.999486     3.911141     4.219649
H     5.584270     4.627845     4.721313
H    -4.227558     5.064719     9.760811
O    -4.844002     5.246945     9.032312
H    -5.477469     4.517305     9.009751
H    -7.006872    -3.486531    -3.520018
O    -7.625108    -4.098077    -3.972196
H    -7.101236    -4.537428    -4.673936
H    -0.019288     6.093297     10.780154
O    -0.884921     6.423372     10.534911
H    -0.771616     6.853558     9.667690
H     2.591249     1.497188    -4.095942
O     3.468888     1.849581    -3.853941
H     3.786678     1.333298    -3.083236
H    -6.465521    -0.504076     7.805954
O    -6.557600     0.021176     8.626004
H    -7.234283    -0.446493     9.124518
H    -2.742156    -9.885202    -0.868659
O    -2.679102    -8.943122    -1.025901
H    -3.585927    -8.577746    -0.786772
H    -10.065559     3.068150    -4.925439
O    -10.183334     2.149935    -4.647500
H    -10.401448     2.231598    -3.698009
H    -2.088236    -3.060564     4.568277
O    -2.957290    -3.512387     4.635046
H    -2.948248    -4.125489     3.875143
H    -0.188585    -8.001263     2.459955
O     0.636085    -7.791454     2.911354
H     1.356610    -8.084936     2.326091
H     6.676805    -2.398082     6.404429
O     7.128794    -3.106592     5.941421
H     6.499402    -3.841700     5.898706
H    -5.177520    -2.157256     6.811486
O    -5.948662    -1.656718     6.474093
H    -6.021138    -1.974933     5.548489
H     0.846646     3.040303    -7.107041
O     1.764858     2.710716    -7.161628
H     1.753380     1.964533    -7.789064
H    -3.992210     8.723309     6.679099
O    -3.989085     8.728729     5.721717
H    -4.110946     7.802041     5.447015
H    -2.069754     10.307575    -2.721163
O    -2.970401     10.489844    -3.025610
H    -2.896323     11.124977    -3.737214
H     9.390864    -4.075095     4.060992
O     9.110517    -4.755031     4.681332
H     8.677597    -4.284953     5.404928
H    -0.720912    -5.993632    -5.861891
O    -0.017930    -6.560824    -5.528460
H     0.817833    -6.097755    -5.741823
H     1.805837     8.263580     0.688312
O     1.505570     8.587781    -0.189380
H     2.321963     8.627319    -0.717034
H     3.507265     2.938243    -6.646572
O     4.333901     2.647757    -6.235483
H     4.086003     2.371670    -5.328011
H     3.721016     7.119694    -1.202604
O     3.927350     8.056010    -1.413155
H     4.299082     8.002176    -2.305561
H     4.410391     0.005496    -7.900706
O     4.785335     0.149815    -7.030044
H     4.601654     1.080818    -6.784258
H     6.020274     1.928093    -0.454204
O     6.588141     2.123436    -1.213529
H     7.412375     1.643928    -1.017846
H     6.686442    -8.433451    -1.610364
O     7.324585    -8.220691    -2.344451
H     7.691276    -9.054248    -2.634335
H    -5.289322    -5.789647    -5.442617
O    -5.906116    -5.117671    -5.758153
H    -5.354959    -4.348070    -5.990448
H     0.641863     7.145557     7.616838
O    -0.259500     7.168739     7.976928
H    -0.815762     7.180544     7.159500
H    -8.891756    -2.841828    -4.140893
O    -9.414514    -2.034742    -3.973693
H    -9.125900    -1.367272    -4.599919
H    -2.407724    -5.996083    -2.170100
O    -3.285469    -5.710230    -2.440466
H    -3.469659    -6.082330    -3.327857
H    -2.974484    -5.899183    -5.437709
O    -3.575226    -6.511011    -4.969240
H    -3.092879    -7.331108    -4.803046
H    -1.381391     3.732360    -6.980677
O    -0.840960     2.976390    -6.710671
H    -1.076148     2.192434    -7.262941
H    -0.188629     0.426960    -8.218533
O    -1.085797     0.660698    -7.937536
H    -1.262973     0.135320    -7.141172
H    -10.427509     4.040283    -2.759416
O    -10.496701     3.259600    -2.194345
H    -9.669038     3.231790    -1.682531
H     4.560892     4.068407     1.743256
O     4.353497     3.146542     2.019523
H     5.070116     2.572055     1.737306
H     6.488067     1.403289    -4.198069
O     6.183629     0.777004    -3.506679
H     6.211002     1.270399    -2.661523
H     9.627924    -2.226942    -0.907487
O     9.907362    -2.009934    -1.805784
H     9.108112    -1.670737    -2.250913
H     9.972197    -3.315731    -3.078280
O     9.708267    -3.966237    -3.755935
H     9.316053    -3.457127    -4.475962
H    -7.696532    -8.587361    -1.714908
O    -6.958389    -7.992829    -1.840574
H    -7.336200    -7.079741    -1.829639
H     4.157376     6.083106    -3.795003
O     4.817847     6.784567    -3.706798
H     5.653789     6.330834    -3.567022
H     0.111096    -8.167773    -5.240349
O     0.135735    -9.151061    -5.111315
H     0.289094    -9.511982    -5.984554
H    -2.326957    -8.679318    -2.749567
O    -2.090390    -8.413429    -3.657812
H    -1.441948    -9.030433    -4.015717
H     2.193824    -10.816720    -3.521588
O     2.147182    -9.862275    -3.494839
H     1.363251    -9.590482    -4.022789
H     6.837122     3.336993    -4.547191
O     6.898403     2.660762    -5.249707
H     6.106346     2.794269    -5.792419
H    -3.520576    -3.804932     7.611875
O    -3.549593    -3.008341     7.074510
H    -3.341000    -3.308705     6.159736
H    -0.623911    -3.356175    -6.738289
O     0.005921    -2.624348    -6.742246
H    -0.477329    -1.850103    -6.399820
H     0.824404     0.394052     8.521900
O     0.780272    -0.518587     8.220805
H    -0.178778    -0.703124     8.172208
H    -5.837872     7.362731    -4.254307
O    -6.338545     6.745045    -4.818623
H    -6.626247     6.011936    -4.230297
H    -4.286562     9.097057    -3.257019
O    -4.822033     8.300276    -3.154672
H    -4.415742     7.818984    -2.415670
H    -9.711970     5.789795    -4.665772
O    -10.245160     4.984259    -4.506041
H    -11.125107     5.185312    -4.826507
H     2.732752     6.490373     6.162122
O     1.772469     6.585972     6.258067
H     1.429131     5.672707     6.152958
H     4.786049     8.539815     0.118110
O     5.101518     8.538978     1.039711
H     5.507178     7.673996     1.170108
H     4.153489    -7.422043    -4.352319
O     3.397886    -7.706295    -4.898346
H     3.116686    -8.548229    -4.525100
H     0.345774     8.638213     4.253579
O     1.026022     7.995659     4.026995
H     1.248425     7.499960     4.841011
H     5.231492     4.192952    -3.133339
O     6.192819     4.163564    -3.077680
H     6.399780     3.580598    -2.330483
H    -2.366377    -1.577151     7.552421
O    -1.997030    -0.782755     7.966242
H    -2.584298    -0.664818     8.738289
H    -9.032377     7.928306    -4.157529
O    -8.966060     7.346853    -4.916462
H    -8.008327     7.183406    -5.048249
H     3.526011    -8.990396     1.073644
O     2.847740    -8.360688     1.323389
H     3.320325    -7.555329     1.606607
H     3.561163     8.159827     1.859040
O     2.771253     7.594827     1.966862
H     2.321426     7.827742     2.791884
N    -3.863555    -0.473657     10.081524
H    -4.695576    -0.254159     9.633486
H    -3.558134     0.372074     10.448542
