21

H    -9.004791    -1.856999    -2.190036
O    -8.501877    -1.629371    -1.386271
H    -8.589361    -2.376229    -0.743879
H    -7.365264     1.622841    -5.175283
O    -7.953659     0.881035    -4.935488
H    -8.848354     1.287472    -4.835289
H    -7.857250     0.064985    -1.839108
O    -7.391655     0.798426    -2.266861
H    -7.611887     0.803658    -3.220882
H    -10.272188     2.958060    -4.874935
O    -10.304869     2.086765    -4.456032
H    -10.360295     2.345325    -3.500384
H    -8.799968    -2.869115    -4.151869
O    -9.262352    -2.010155    -4.038931
H    -8.774689    -1.392129    -4.599165
H    -10.343651     4.152913    -2.682361
O    -10.443113     3.395623    -2.084503
H    -9.580933     3.347116    -1.615549
N    -11.694157    -0.518461    -5.309196
H    -11.117725    -1.139342    -4.845658
H    -11.388711     0.353980    -5.024963
