21
Coordinates from ORCA-job grain_mol_opt.QMRegion
  H   7.83457354903573     -1.65774086102854     -4.10888942174064
  O   7.62822860041963     -1.32478388345249     -3.20284103845188
  H   7.09596814853819     -0.49596597241923     -3.34211788806949
  H   9.44181243284088      0.65931837711084     -0.66313802494691
  O   8.52499461544109      0.63490976906869     -0.32766114606896
  H   8.39835633685319     -0.25715670850119      0.02781513699066
  H   7.93904800743037     -3.05472117149232      0.36151530678784
  O   8.38738242818528     -2.21096098035053      0.59518986087728
  H   8.34490369646183     -2.22053619687326      1.56355919511868
  H   5.86196030560021      1.96772572396646     -0.60724443961597
  O   6.51647902086370      2.16292371453580     -1.29045911753988
  H   7.31494141808538      1.68091404210465     -0.98678511724907
  H   9.61326330640006     -2.22744172255658     -0.95774006001585
  O   9.88821901044784     -2.03396318428177     -1.87150463112298
  H   9.08321834500894     -1.62799628643836     -2.27033840977120
  H   9.91869707701555     -3.41119993274003     -3.19761157965377
  O   9.72117213332228     -4.05607244177929     -3.90288460070807
  H   9.23233628843451     -3.55215164269707     -4.56812799344436
  O   11.09506788636254      0.40125608467830     -1.42913592122340
  H   11.22887594852773      0.86449628625897     -2.26131906364127
  H   10.85408961638859     -0.51549762631508     -1.68654778683673
