33

H     6.650373    -1.247761    -1.356621
O     5.898476    -1.053149    -0.790185
H     5.450079    -1.909987    -0.589157
H     7.851141    -1.745341    -4.078409
O     7.674335    -1.376054    -3.174603
H     7.190904    -0.529108    -3.337911
H     8.164040    -1.505050    -6.086626
O     8.116161    -2.354198    -5.615907
H     7.221165    -2.677920    -5.858234
H     7.656605     0.979887    -6.764666
O     7.383926     0.066100    -6.887346
H     6.395962     0.090717    -6.835086
H     9.250931     0.420579    -0.963889
O     8.532300     0.497845    -0.328467
H     8.430249    -0.400624     0.032869
H     5.916016     1.925840    -0.411230
O     6.435335     2.161202    -1.200066
H     7.290259     1.723805    -1.009966
H     6.344926     1.445445    -4.214389
O     6.168064     0.764802    -3.535336
H     6.061638     1.247490    -2.685044
H     9.658114    -2.256938    -0.965369
O     9.973524    -2.001235    -1.842265
H     9.177089    -1.618816    -2.269321
H     6.607642     3.466161    -4.460322
O     6.820536     2.848277    -5.203578
H     6.039672     2.923923    -5.778115
H     5.086666     4.308853    -3.108978
O     6.049487     4.289568    -3.010597
H     6.202831     3.699343    -2.246785
N     9.153118     1.964361    -3.057334
H     8.619596     2.092184    -3.850880
H     9.723814     2.737012    -3.029972
