30

H     4.280349    -2.378820     5.722445
O     3.947035    -2.934496     6.459347
H     4.359118    -3.801710     6.283916
H     4.878533    -2.173892     3.635893
O     4.902418    -1.458589     4.305162
H     4.077136    -0.916992     4.138406
H     3.533374    -1.177416     7.535562
O     3.737137    -0.234263     7.478667
H     4.704184    -0.224809     7.377670
H     6.686523     1.154419     4.507971
O     6.347696     1.668997     5.273778
H     6.437122     2.609789     4.986878
H     7.440383    -0.693359     2.983338
O     6.804870    -0.009154     3.235670
H     6.061272    -0.553575     3.618186
H     7.614570    -2.647722     4.202650
O     7.788816    -2.700054     3.241142
H     7.270093    -3.482312     2.982126
H     1.806995     2.247904     8.544035
O     2.560913     2.240935     7.933769
H     2.828724     1.302376     7.879705
H     4.481778     1.976237     5.168520
O     3.546104     2.226383     5.080207
H     3.151611     2.144013     5.958912
H     6.994028    -2.091278     6.352500
O     7.296786    -2.939483     5.981769
H     6.542014    -3.536621     6.045666
N     6.586236    -0.315863     7.083987
H     6.641531     0.488875     6.514197
H     7.118438    -0.117131     7.859483
