603

H     0.202307     3.032407    -0.673510
O     0.724065     2.362067    -1.165005
H     1.663413     2.491288    -0.893002
H    -0.073540    -1.297173     3.168090
O     0.316860    -0.598937     2.620225
H    -0.158342     0.216209     2.852484
H    -2.397450     2.413384    -0.527298
O    -2.188262     1.944173     0.297930
H    -2.201470     0.996204     0.074279
H    -4.661547     0.556590     2.198362
O    -4.976385    -0.378172     2.214344
H    -4.472300    -0.853410     1.545700
H     0.065857    -0.303251     0.964294
O    -0.135717    -0.067895     0.038082
H     0.207220     0.826956    -0.086231
H    -0.156232    -3.567478     3.796783
O    -0.433441    -2.737283     4.219498
H     0.217381    -2.564617     4.916450
H    -4.884041     2.538386     1.340573
O    -4.245493     2.127261     1.955482
H    -3.402485     2.109792     1.442690
H    -3.248323     3.897365    -2.206172
O    -2.511496     3.299837    -1.974058
H    -2.153212     3.010407    -2.833367
H    -0.128550    -3.805087     0.529497
O     0.212797    -2.985037     0.938702
H    -0.571390    -2.494378     1.249743
H    -2.374862    -1.522487     2.487394
O    -2.190009    -1.991056     1.646640
H    -2.446374    -1.407184     0.913746
H     2.071738    -1.444696    -1.107453
O     2.303056    -1.693778    -0.188837
H     1.515208    -2.122932     0.195204
H    -1.387728     1.831662     1.921571
O    -1.481805     1.435941     2.798298
H    -1.463969     2.149865     3.461617
H     0.205498    -2.705253    -1.552082
O    -0.551347    -2.094480    -1.604639
H    -0.369082    -1.365643    -0.974655
H    -3.439644    -2.913614    -0.373275
O    -2.723862    -3.418504    -0.779756
H    -2.009651    -2.795334    -1.007131
H     2.775540     0.137045     2.943049
O     2.873836    -0.043334     3.905277
H     2.967244     0.850248     4.307807
H    -3.526915     6.383622    -0.542751
O    -3.288847     7.044345    -1.244614
H    -3.146093     7.890582    -0.776564
H     3.903065     0.587455     1.193611
O     2.952427     0.406517     1.310948
H     2.714714    -0.347122     0.733214
H    -5.782387     0.845723    -1.591532
O    -4.871544     1.171307    -1.463678
H    -4.981647     2.001686    -0.954984
H    -1.207520     5.405863     2.210338
O    -1.832912     4.658493     2.096517
H    -1.909505     4.242258     2.960277
H     3.495287     2.764825     0.427887
O     3.245684     2.719905    -0.510728
H     3.578158     1.876679    -0.860003
H     1.487065    -4.701177    -2.227678
O     1.550729    -3.920365    -1.659026
H     2.346238    -3.462089    -2.011383
H    -0.923756    -0.088271    -2.534900
O    -0.290511     0.563871    -2.861319
H    -0.028344     1.147601    -2.126148
H     1.696083    -4.686779    -0.154020
O     1.800044    -5.319384     0.591306
H     1.337933    -6.133786     0.296144
H    -1.229756    -3.270161    -2.858072
O    -1.058831    -3.953285    -3.519416
H    -0.931182    -4.801416    -3.051276
H    -2.774829     3.324618     4.711682
O    -1.793815     3.319978     4.676460
H    -1.500244     2.920785     5.513678
H     0.967727     5.046717     4.075258
O     0.021682     5.279085     4.128178
H    -0.449848     4.476478     4.388339
H    -1.733626    -4.591628    -0.410532
O    -0.961890    -5.154759    -0.183306
H    -1.300216    -5.775500     0.475866
H    -3.917409     5.830977    -2.596420
O    -4.268859     4.996232    -2.923865
H    -4.114763     4.959142    -3.892158
H    -2.430457    -3.578465     1.955422
O    -2.491496    -4.496450     2.305803
H    -1.548149    -4.780748     2.393122
H    -4.699108    -2.983217    -2.876089
O    -3.846577    -3.215326    -3.281761
H    -3.514640    -4.009529    -2.817877
H     0.343911     1.390014     4.624124
O     0.848317     2.149580     4.287415
H     0.900000     2.809813     4.992965
H    -4.633844    -5.152745    -1.562931
O    -5.345432    -4.796206    -0.997676
H    -5.149852    -5.165815    -0.119614
H     2.320097    -6.490559    -4.013158
O     1.984351    -6.158571    -3.160451
H     2.416832    -6.732697    -2.495725
H     0.461605    -3.386429    -3.986219
O     1.263600    -3.019160    -4.410568
H     0.943562    -2.650775    -5.260134
H     1.965390    -1.744514     2.994991
O     2.118422    -2.676568     2.781440
H     1.434231    -2.892364     2.113815
H    -3.017993    -1.812437    -3.191023
O    -2.596876    -0.925463    -3.126150
H    -3.251655    -0.280844    -3.449120
H    -3.187387     4.982709     1.083173
O    -3.969865     5.354655     0.628785
H    -4.383780     5.914898     1.333857
H     0.879612     2.262048     2.597090
O     0.978455     2.254247     1.625773
H     1.705875     1.631301     1.462088
H     0.191984     5.658079    -0.759450
O     0.713100     6.318538    -1.270478
H     0.856386     7.119615    -0.716802
H     0.348333     7.044786     2.586245
O    -0.015134     6.662110     1.770463
H     0.648718     5.991134     1.509540
H    -2.477771     0.226125     3.355617
O    -2.698521    -0.587558     3.862277
H    -1.936291    -0.623238     4.483130
H    -0.888148     0.571292     6.036761
O    -0.617761     0.047733     5.263751
H     0.098428    -0.553406     5.550208
H     0.709664    -4.947932     1.961421
O     0.168934    -5.075882     2.768598
H     0.401819    -5.985250     3.038546
H    -2.055655    -8.197966     0.650421
O    -1.641537    -7.683836     1.373180
H    -2.308549    -7.625892     2.090098
H    -0.378823     6.861658    -2.329064
O    -1.125685     7.280724    -2.828457
H    -1.915040     7.156014    -2.263694
H    -1.111505     4.314426     0.576947
O    -0.739569     4.373067    -0.319665
H    -1.446794     4.130129    -0.950924
H    -4.405284     2.760728     3.516109
O    -4.403269     2.933358     4.480249
H    -4.486260     2.051690     4.891813
H     2.026770    -3.571173     4.262696
O     1.958543    -4.038995     5.117860
H     2.470955    -3.504192     5.745704
H     4.686991    -3.192506     0.854176
O     4.526101    -3.117601    -0.112325
H     3.666838    -2.641600    -0.196098
H    -2.724427    -0.748032    -1.334786
O    -3.054083    -0.477961    -0.460909
H    -3.851201     0.052237    -0.670314
H    -1.621232    -0.768223    -4.615827
O    -1.116159    -0.553340    -5.420945
H    -0.404980     0.042709    -5.138077
H     1.790531    -1.721370    -3.362667
O     1.883327    -0.972851    -2.741386
H     1.106530    -0.395610    -2.873945
H     3.663802    -3.116057     2.565975
O     4.622570    -3.344703     2.493309
H     4.675920    -4.305352     2.620166
H     3.426415    -6.113412     3.145664
O     3.781713    -5.910216     2.245702
H     3.040621    -5.572061     1.701883
H    -3.346974     1.605735    -4.167013
O    -4.192284     1.136270    -3.974088
H    -4.408195     1.284623    -3.017844
H    -5.080771     4.152729     0.074048
O    -5.520369     3.286659    -0.025941
H    -6.450597     3.406244    -0.308416
H     6.731641    -1.186187    -1.354752
O     5.959921    -1.034348    -0.802779
H     5.540812    -1.901575    -0.602402
H     4.589319    -3.174546    -2.455926
O     3.721411    -3.003069    -2.871821
H     3.723445    -3.624540    -3.625875
H     4.438716    -2.280935     5.634436
O     4.095513    -2.744434     6.428666
H     4.430689    -3.649718     6.348918
H    -0.746604     6.352921     5.073151
O    -1.342780     6.930058     5.610431
H    -1.356094     7.806217     5.167047
H     4.696551    -0.139597    -1.458978
O     3.928858     0.402485    -1.721982
H     3.236193    -0.198845    -2.050248
H    -0.745000     4.517274    -4.035244
O    -1.527822     5.060141    -4.243372
H    -1.375169     5.927871    -3.823472
H     0.657987     3.199822    -2.654374
O     0.663986     3.574408    -3.563684
H     0.711033     2.809634    -4.147524
H    -5.427164    -5.031419     1.868114
O    -4.786628    -5.743147     1.579489
H    -3.911479    -5.303283     1.680716
H     7.875776    -1.701388    -4.026150
O     7.619275    -1.385585    -3.127013
H     7.132445    -0.542115    -3.285045
H     3.692644    -5.084300    -5.270029
O     4.455871    -4.709536    -4.791223
H     4.840589    -5.419471    -4.243953
H    -3.779415     0.034748     4.950271
O    -4.380380     0.500003     5.581584
H    -5.040646    -0.156242     5.876427
H     3.459615    -5.944256    -0.497614
O     4.332172    -5.697149    -0.816343
H     4.408526    -4.734759    -0.675201
H     4.995314    -0.346114    -4.152950
O     4.458706    -1.057550    -4.540761
H     4.133773    -1.639999    -3.821429
H    -1.176751     1.565999    -3.927403
O    -1.827375     2.186210    -4.313535
H    -1.470515     2.515463    -5.161184
H     4.877936    -6.328364    -2.293810
O     5.211450    -6.653239    -3.159249
H     6.028286    -7.135815    -2.971800
H     8.734056    -5.101406    -2.903847
O     8.043328    -5.516904    -2.343402
H     8.076530    -6.474602    -2.443299
H     2.340303     4.722182     0.450005
O     1.761624     4.706163     1.221700
H     1.404001     3.786285     1.301732
H    -4.408369    -2.618360     4.257219
O    -5.302251    -2.280556     4.051854
H    -5.166691    -1.498064     3.476691
H    -5.831814    -3.080343     1.321595
O    -6.305375    -3.630241     2.000063
H    -6.113967    -3.172220     2.844025
H     1.694567     3.486619     6.864470
O     1.070862     4.000577     6.329938
H     0.289005     4.156146     6.902328
H     5.002574    -2.161432     3.628082
O     5.023893    -1.441152     4.290296
H     4.212329    -0.885217     4.132943
H     2.389697    -5.566435     4.860948
O     2.772330    -6.448575     4.604187
H     2.028279    -7.031166     4.424964
H     2.246726    -4.530234    -6.770601
O     2.078430    -5.016602    -5.953678
H     1.814884    -4.324496    -5.299110
H     6.435965    -4.105765    -0.488453
O     7.190295    -4.506663    -0.025212
H     7.696191    -4.932164    -0.745362
H    -1.715907     4.512468     7.703966
O    -0.816702     4.610650     8.088276
H    -0.634908     5.569792     8.110223
H    -5.122467     5.685935    -5.593029
O    -4.515363     4.922023    -5.611758
H    -3.758586     5.134538    -6.179166
H     3.270456    -2.546335    -8.422886
O     3.182838    -3.076541    -7.619990
H     4.059953    -3.052700    -7.192091
H    -0.658926     8.824810    -2.287004
O    -0.535188     9.654407    -1.770156
H     0.227813     9.481189    -1.194002
H     2.070182    -0.899094     5.222983
O     1.495434    -1.421088     5.812045
H     1.593648    -1.075827     6.708763
H     5.197349    -2.038396    -5.682125
O     5.542651    -2.805941    -6.202714
H     5.268854    -3.594669    -5.682948
H     5.696035    -5.204140     4.704446
O     5.174706    -5.116693     5.531476
H     4.453046    -5.749026     5.447851
H    -3.967777     1.168398     7.020288
O    -3.774719     1.644839     7.863114
H    -4.650097     2.032586     8.123752
H    -1.848386     9.616855    -0.755170
O    -2.708395     9.491916    -0.279439
H    -3.319638     10.119805    -0.668184
H    -5.950153     4.688872    -2.932221
O    -6.859472     4.568710    -3.274388
H    -6.769986     3.865071    -3.950314
H     0.094082    -7.066385    -1.113343
O     0.569239    -7.494498    -0.370995
H    -0.108317    -7.693075     0.283650
H    -7.638781     3.793940    -1.962811
O    -7.899254     3.208511    -1.221055
H    -7.757436     2.299229    -1.559403
H     3.979403    -0.875480     6.996191
O     3.987749     0.088693     6.984637
H     4.799855     0.377417     6.551826
H     2.258746     5.794932    -1.184449
O     3.194137     5.501969    -1.070207
H     3.369850     4.959971    -1.862386
H     6.546708    -5.929247     0.691461
O     6.178744    -6.663463     1.228182
H     5.274156    -6.385828     1.454629
H    -3.859291     4.753177     7.785403
O    -3.293975     4.288223     7.126672
H    -3.487517     3.345306     7.240084
H     5.757008    -7.946008     0.162051
O     5.469634    -8.633588    -0.474839
H     4.637716    -8.310902    -0.866448
H    -0.549389     2.064067     7.700728
O    -1.183693     1.996822     6.966654
H    -2.051692     1.857751     7.365022
H    -6.384876    -0.109410     1.081872
O    -6.703085    -0.201515     0.169399
H    -7.623715    -0.466085     0.186707
H    -5.376079    -3.055811    -0.567759
O    -5.129748    -2.357304     0.064865
H    -5.693097    -1.580239    -0.128655
H     4.319494     5.579100     0.313757
O     4.654165     5.681859     1.218439
H     3.960424     6.193722     1.670035
H    -9.048521    -1.740960    -2.228679
O    -8.500446    -1.537995    -1.442894
H    -8.628472    -2.273480    -0.804231
H    -5.530391     3.463517    -5.518431
O    -6.047448     2.754138    -5.101071
H    -5.380415     2.169388    -4.687117
H     3.172149    -0.901407    -5.644526
O     2.315692    -1.021622    -6.109410
H     2.400176    -1.872116    -6.580515
H     8.105389    -1.366117    -6.023219
O     8.113784    -2.228837    -5.564453
H     7.257183    -2.629305    -5.812907
H     7.612563     0.974007    -6.309007
O     7.422833     0.124888    -6.720171
H     6.441447     0.074970    -6.754932
H    -7.868740    -3.679078     0.958163
O    -8.544884    -3.576865     0.271776
H    -8.445518    -4.338070    -0.327948
H    -2.403120     8.744588     1.286000
O    -2.251906     8.157714     2.040283
H    -1.482094     7.603883     1.818067
H    -4.438144     6.450177     3.497869
O    -4.609331     6.873651     2.640324
H    -3.846015     7.459176     2.498201
H     3.397024     3.438671    -3.577677
O     3.244118     4.408248    -3.486272
H     2.279245     4.473077    -3.593412
H    -6.121229    -1.608964    -3.418833
O    -6.203813    -2.184438    -2.631791
H    -6.988587    -1.875236    -2.125785
H     6.471681     1.060668     4.741973
O     6.078375     1.601615     5.443732
H     6.267026     2.519347     5.150258
H     1.354214     1.709610    -5.816481
O     1.160011     1.115851    -5.060481
H     1.523185     0.251961    -5.328471
H    -2.477768     2.994034     10.491628
O    -2.266857     2.085561     10.220082
H    -2.865588     1.884965     9.488907
H     7.628814    -0.491272     3.088132
O     6.879168     0.085068     3.256592
H     6.187294    -0.514416     3.638030
H    -5.698571    -8.066150    -0.773613
O    -4.957443    -8.141549    -0.128680
H    -4.995468    -7.335799     0.409519
H    -5.184735    -0.124983    -4.696959
O    -5.803051    -0.837144    -4.932363
H    -6.640721    -0.395375    -5.132240
H     1.879638    -0.215288    -7.504696
O     1.677152     0.254762    -8.349479
H     2.252812    -0.152465    -9.002265
H     4.859220    -1.415887    -9.294072
O     3.933983    -1.186769    -9.575995
H     3.912542    -1.308092    -10.524569
H     7.565382    -2.561739     4.210009
O     7.710968    -2.599758     3.250438
H     7.217426    -3.391446     2.981054
H     6.718315    -5.888660     2.704269
O     6.782163    -5.211374     3.403417
H     7.658312    -5.296977     3.820303
H    -1.814129     8.960751     3.488742
O    -1.565392     9.267306     4.386158
H    -2.413631     9.401784     4.842044
H    -7.397013     1.561854    -5.234442
O    -7.971848     0.818892    -4.985784
H    -8.873426     1.219135    -4.910677
H     6.914230    -1.105019    -8.397412
O     6.331412    -1.826243    -8.658654
H     6.104383    -2.274147    -7.825363
H    -1.683139     6.227705    -7.024370
O    -2.081457     5.403600    -6.747937
H    -1.831610     5.274997    -5.784420
H     0.010829     3.337020     9.027277
O     0.207040     2.417508     9.283893
H    -0.590513     2.155397     9.792529
H     6.750049    -2.787498    -2.693773
O     6.219442    -3.530303    -2.350183
H     6.687024    -4.342301    -2.594774
H    -4.086101    -3.079975    -4.919411
O    -4.242469    -2.969611    -5.884002
H    -4.789262    -2.176438    -5.941490
H     1.989236     2.207018     8.470097
O     2.651683     2.317406     7.778415
H     3.073933     1.446886     7.664913
H    -6.915142    -5.195480    -1.369804
O    -7.833093    -5.462629    -1.606679
H    -7.968138    -5.064781    -2.491742
H    -3.819749     5.276489     5.700751
O    -3.787532     6.042963     5.107457
H    -2.853402     6.337659     5.199749
H    -7.889503     0.090907    -1.946643
O    -7.398933     0.813125    -2.361521
H    -7.628137     0.800642    -3.314751
H     5.835985     0.131075     0.417219
O     5.614832     0.854159     1.036719
H     6.126301     0.660814     1.849360
H    -6.206842     3.337623     7.407317
O    -6.078013     2.820874     8.236816
H    -6.679587     2.060373     8.151613
H     2.267953    -8.071845    -0.815788
O     2.949159    -8.063819    -1.509464
H     2.722566    -8.779066    -2.120413
H    -2.755628    -3.972701    -6.171722
O    -2.001847    -4.538274    -5.939547
H    -1.724312    -4.245331    -5.043169
H    -5.637676     3.782410     5.318333
O    -6.285971     4.180070     5.935542
H    -6.122304     5.124072     5.919840
H    -1.029919    -7.119075    -3.129626
O    -0.558523    -6.441129    -2.610654
H     0.350748    -6.380231    -2.988015
H     4.449464     2.030645     5.130953
O     3.507660     2.270183     5.011567
H     3.124841     2.288802     5.894031
H     4.117452     4.674477     6.297018
O     4.197219     5.403307     5.677252
H     3.628905     5.160852     4.907523
H     2.769755     3.629483     3.923037
O     2.591533     4.569089     3.754925
H     2.471559     4.665327     2.788332
H     9.390391     0.206290    -1.070066
O     8.585266     0.371316    -0.575717
H     8.409360    -0.446372    -0.080611
H    -2.088092     5.353082     10.652292
O    -2.810207     4.725444     10.885996
H    -3.027526     4.905358     11.800912
H     7.969970    -3.009439     0.338241
O     8.391751    -2.162198     0.590920
H     8.327076    -2.155236     1.553289
H     5.374887     3.674562     3.522052
O     6.031825     3.941388     4.187002
H     5.620326     4.661221     4.687045
H    -4.196975     5.054701     9.789571
O    -4.830750     5.203514     9.067660
H    -5.443207     4.455431     9.068558
H    -7.018116    -3.479773    -3.456664
O    -7.639802    -4.092275    -3.902079
H    -7.119695    -4.537450    -4.603358
H     0.040907     6.160967     10.767974
O    -0.823970     6.491588     10.520683
H    -0.708960     6.920196     9.653302
H     2.583526     1.486837    -4.099692
O     3.462063     1.840261    -3.862717
H     3.783347     1.326740    -3.091536
H    -6.967767    -0.191413     7.240583
O    -7.474912     0.588437     7.518987
H    -8.099106     0.770651     6.815497
H    -2.724363    -9.893523    -0.853618
O    -2.625199    -8.943137    -0.956977
H    -3.541964    -8.582084    -0.776197
H    -10.074567     3.073024    -4.882365
O    -10.191661     2.156436    -4.598770
H    -10.406441     2.243378    -3.649092
H    -2.058435    -2.943249     4.617620
O    -2.918916    -3.407720     4.711992
H    -2.912428    -4.007249     3.940775
H    -0.039128    -8.008115     2.508022
O     0.772582    -7.801825     2.999410
H     1.492224    -8.078191     2.398403
H     6.709486    -2.359717     6.403948
O     7.158292    -3.070664     5.941656
H     6.528127    -3.805504     5.905383
H    -5.268466    -1.977566     6.968411
O    -5.944994    -1.481479     6.483003
H    -5.930617    -1.861106     5.575777
H     0.827609     3.017288    -7.111031
O     1.744947     2.685911    -7.167299
H     1.730131     1.936550    -7.790992
H    -3.944203     8.780995     6.667100
O    -3.943672     8.776068     5.709743
H    -4.069686     7.847882     5.444769
H    -2.058954     10.312161    -2.749332
O    -2.960955     10.493294    -3.050383
H    -2.889959     11.125313    -3.765082
H     9.411220    -4.052155     4.056341
O     9.132602    -4.728275     4.681567
H     8.703556    -4.253881     5.404610
H    -0.746953    -6.007558    -5.812185
O    -0.043643    -6.574176    -5.478864
H     0.792195    -6.114106    -5.697426
H     1.829217     8.279944     0.653121
O     1.524781     8.599478    -0.224894
H     2.338754     8.635645    -0.756631
H     3.490112     2.914113    -6.661555
O     4.318141     2.624963    -6.252432
H     4.073968     2.353350    -5.342649
H     3.733947     7.123369    -1.240422
O     3.939777     8.058428    -1.456683
H     4.308010     7.999644    -2.350262
H     4.383674    -0.027008    -7.904521
O     4.761935     0.121655    -7.036020
H     4.581062     1.054288    -6.794846
H     6.029295     1.931680    -0.475061
O     6.593707     2.122979    -1.237964
H     7.418198     1.643036    -1.044079
H     6.675565    -8.435140    -1.581069
O     7.311832    -8.226912    -2.318446
H     7.676565    -9.062544    -2.604820
H    -5.312867    -5.796409    -5.372795
O    -5.930449    -5.124322    -5.686916
H    -5.379042    -4.357753    -5.928255
H     0.693494     7.197379     7.594263
O    -0.207651     7.225974     7.954740
H    -0.764081     7.239279     7.137887
H    -8.906112    -2.835353    -4.071801
O    -9.425127    -2.025825    -3.904656
H    -9.140684    -1.363032    -4.537720
H    -2.421518    -5.991017    -2.107514
O    -3.297527    -5.699890    -2.379016
H    -3.485388    -6.080256    -3.262545
H    -2.998067    -5.910871    -5.375590
O    -3.598795    -6.517268    -4.900398
H    -3.117655    -7.337677    -4.729923
H    -1.399028     3.713095    -6.978623
O    -0.859110     2.957825    -6.705828
H    -1.096517     2.171253    -7.253625
H    -0.215679     0.400141    -8.204377
O    -1.111135     0.636928    -7.920271
H    -1.285666     0.115133    -7.121050
H    -10.426158     4.056492    -2.720032
O    -10.492955     3.279478    -2.149524
H    -9.662938     3.254492    -1.641756
H     4.582799     4.086125     1.716807
O     4.374075     3.166098     1.998102
H     5.089130     2.588844     1.717371
H     6.479419     1.387318    -4.218582
O     6.176498     0.765453    -3.522592
H     6.209160     1.262916    -2.680080
H     9.628647    -2.230385    -0.922914
O     9.904495    -2.017475    -1.823300
H     9.103505    -1.680427    -2.266836
H     9.961895    -3.330596    -3.089701
O     9.693923    -3.984169    -3.762711
H     9.299242    -3.478413    -4.483712
H    -7.706308    -8.570688    -1.622782
O    -6.972438    -7.973084    -1.758411
H    -7.352090    -7.061696    -1.748889
H     4.157437     6.072598    -3.829420
O     4.818854     6.773823    -3.746829
H     5.655080     6.319845    -3.609507
H     0.084325    -8.180744    -5.180872
O     0.107812    -9.163099    -5.047560
H     0.258374    -9.528710    -5.919301
H    -2.339553    -8.677542    -2.673537
O    -2.112020    -8.413616    -3.586269
H    -1.466548    -9.032888    -3.945528
H     2.169265    -10.823075    -3.453404
O     2.129065    -9.867986    -3.439459
H     1.339767    -9.598771    -3.960348
H     6.829979     3.318912    -4.579216
O     6.886974     2.638871    -5.278324
H     6.092854     2.770721    -5.818377
H    -3.556976    -3.693731     7.750154
O    -3.676437    -2.911116     7.213456
H    -3.424500    -3.153799     6.297958
H    -0.649680    -3.375991    -6.701853
O    -0.019704    -2.644285    -6.712870
H    -0.500772    -1.868007    -6.372495
H     0.650947     0.488475     8.763317
O     0.656845    -0.228065     8.124699
H    -0.265503    -0.516572     8.039161
H    -5.837136     7.365237    -4.251306
O    -6.341169     6.745079    -4.809923
H    -6.627854     6.016093    -4.216363
H    -4.279817     9.101950    -3.269720
O    -4.815758     8.306364    -3.160438
H    -4.406505     7.828718    -2.420816
H    -9.716289     5.795191    -4.636592
O    -10.249874     4.991228    -4.470153
H    -11.130600     5.191654    -4.788934
H     2.777529     6.534731     6.132335
O     1.817568     6.631986     6.231231
H     1.473487     5.718626     6.131370
H     4.806272     8.549302     0.068137
O     5.124534     8.552375     0.988777
H     5.531567     7.688377     1.121383
H     4.131450    -7.435898    -4.315287
O     3.373193    -7.721042    -4.857057
H     3.091725    -8.560662    -4.478516
H     0.384956     8.675409     4.223669
O     1.061730     8.029538     3.996330
H     1.289318     7.539005     4.812070
H     5.231646     4.184149    -3.162677
O     6.193129     4.154308    -3.110749
H     6.402792     3.574368    -2.361936
H    -2.573330    -1.517866     7.593754
O    -2.061665    -0.724850     7.809579
H    -2.684973    -0.096343     8.184234
H    -9.030585     7.936509    -4.143997
O    -8.968800     7.349149    -4.898742
H    -8.011970     7.184671    -5.035098
H     3.530540    -8.974886     1.119321
O     2.856843    -8.341534     1.371143
H     3.331552    -7.534802     1.644541
H     3.588900     8.179254     1.815697
O     2.798129     7.616565     1.930712
H     2.353335     7.854824     2.756853
N    -3.575112    -7.506725     3.335218
H    -3.342492    -7.032896     4.139630
H    -4.211944    -6.920075     2.876909
