33
Coordinates from ORCA-job grain_mol_opt.QMRegion
  H   3.59441209383856     -2.99806348509720      2.50730647062486
  O   4.55839779659361     -3.23482016446792      2.45194489988078
  H   4.55593045645822     -4.19292250635679      2.59933449576910
  H   3.28908626235638     -6.07440213243869      3.06364073286355
  O   3.72413898674955     -5.83862120031815      2.20181017308563
  H   3.00814117042172     -5.50747607806783      1.61772922014964
  H   3.41285964548636     -5.90034016571789     -0.73701112418212
  O   4.33431987490388     -5.65259602534611     -0.84904694021854
  H   4.35758294893491     -4.67756592099753     -0.73166673732459
  H   2.36015195987139     -5.53028495606458      4.84369920985067
  O   2.70603874579943     -6.43547982646240      4.58791289947849
  H   1.90514932857545     -6.96027748284044      4.45467115309129
  H   5.65138854635365     -5.28189469854227      4.77320900914007
  O   5.21739113996156     -5.17509220263813      5.65023432945680
  H   4.47035526992798     -5.77704757772254      5.66289273888151
  H   6.60068020911609     -5.92287060139350      0.71791984640082
  O   6.22091853555225     -6.65437089580964      1.26422078777122
  H   5.29494431860062     -6.36270386334724      1.38584190141851
  H   5.71733246457861     -7.97503398867905      0.07584179811471
  O   5.47202193007181     -8.72152992191507     -0.50331441466208
  H   4.62112804722612     -8.45211852439393     -0.89763074792013
  H   6.76946620556397     -5.81944635399352      2.72039425549455
  O   6.79875955205906     -5.20179667622084      3.47709419066801
  H   7.68934752240294     -5.28056711376240      3.88234203538339
  H   -0.41527416437416     -7.83617078712350      2.48817398130571
  O   0.40506627144951     -7.76702796126157      3.00235024863702
  H   1.12845666490218     -8.06003772634822      2.40294772362221
  H   3.31697273047813     -8.91062152199137      1.93329994360567
  O   2.62215639477356     -8.41245412323640      1.47036575065119
  H   3.01258532210874     -7.52368231711907      1.48140187826007
  O   4.93609355643338     -8.81731475488949      3.20302838303957
  H   5.63316699838345     -8.35276582518958      2.72236574018084
  H   4.66146046773205     -8.19369382347384      3.88418844438299
