42
Coordinates from ORCA-job grain_mol_opt.QMRegion
  H   1.71708912000515     -4.65874601775492     -0.20333977007460
  O   1.81996398240331     -5.32630949462658      0.51686334316371
  H   1.30171118748142     -6.10053637898113      0.22642902465746
  H   2.42397376749070     -6.39979918789425     -4.02078249094402
  O   2.05671570418725     -6.13476720421064     -3.16155592745047
  H   2.46922310709084     -6.75860364848045     -2.52873387861833
  H   -2.29676620310953     -7.83950884309490      0.55844259585369
  O   -1.91115996403855     -7.40897672753554      1.34925107962047
  H   -2.66169240612670     -7.03483255159863      1.82442099029636
  H   -0.02978593620939     -7.13606960494394     -1.12430065674758
  O   0.40965051535985     -7.55899290661439     -0.33907226262948
  H   -0.25650427306313     -7.48750667415742      0.35817938854765
  H   2.61238052398237     -8.20781800631414     -0.62488650209290
  O   3.00213366651196     -8.11907519707418     -1.51438552426817
  H   2.70602769553962     -8.88150037198478     -2.02718795845625
  H   -0.94758197110541     -7.07652336195124     -3.19339745864982
  O   -0.48335720457343     -6.43592785186151     -2.61771446693118
  H   0.42021948644768     -6.34173613143183     -3.01490633085715
  H   -2.35582656968953     -9.49105467256677     -0.90486370168313
  O   -2.67022015399209     -8.59021658550179     -1.06195838265141
  H   -3.61882468854109     -8.53902707700415     -0.75967724149538
  H   -0.14460618778431     -8.10760382027384      2.73020202337812
  O   0.69999294346502     -7.78281955226228      3.05817368943243
  H   1.38392816992077     -8.12159817625072      2.45295033030799
  H   0.08342865376634     -8.14582804445926     -5.45655728949896
  O   0.14626502315590     -9.13777981227190     -5.40335192551547
  H   0.36520190267056     -9.41056804551082     -6.29928173488155
  H   -2.38422080100649     -8.59756771387563     -2.85009037938124
  O   -2.03967596203562     -8.35096369632477     -3.73471648867544
  H   -1.63127803335479     -9.11543351038804     -4.14809706953527
  H   2.23674848155571    -10.79304163785556     -3.78172172666911
  O   1.89872966497772     -9.94128446811260     -3.49081483800668
  H   1.27212891434310     -9.65268361592732     -4.20099588928264
  H   4.27287443691903     -7.46587461195495     -4.28960381678248
  O   3.56230065424901     -7.71336921578319     -4.92080819167254
  H   3.20297565057831     -8.53135149483630     -4.55597414921992
  H   3.64901721564229     -8.97171776394759      1.36571987345531
  O   2.95835589215419     -8.30288047650739      1.36002722827893
  H   3.42204259995967     -7.47826006873581      1.64410787467431
  O   -0.22762448579581    -10.18432996393601     -1.13871095347754
  H   0.08220360356035     -9.29824023831544     -0.86125410625892
  H   0.32055604300955    -10.38024139853006     -1.90828714277106
