30

H     6.565172    -1.197025    -1.525474
O     5.903049    -1.050497    -0.843210
H     5.465388    -1.916317    -0.652722
H     6.365469     1.190736     4.817944
O     6.046968     1.743802     5.556830
H     6.215074     2.648988     5.204368
H     7.630753     0.095291     3.104888
O     6.699450     0.309434     3.308763
H     6.269015    -0.515510     3.625982
H     7.461363    -2.601471     4.235129
O     7.485081    -2.636021     3.261952
H     7.052483    -3.489800     3.077852
H     5.786030     0.121448     0.415958
O     5.580453     0.886742     0.985480
H     5.983294     0.684028     1.864929
H     9.439441     0.051985    -0.924186
O     8.688394     0.327915    -0.380811
H     8.316616    -0.537025    -0.109053
H     7.977112    -3.103465     0.397742
O     8.424983    -2.264044     0.640374
H     8.185517    -2.173451     1.580129
H     6.087787     1.996697    -0.482839
O     6.642589     2.197893    -1.255462
H     7.483341     1.768932    -1.048277
H     9.648138    -2.290770    -1.127196
O     9.908535    -1.866021    -1.955945
H     9.049156    -1.628989    -2.373077
N     9.316735     0.243955     2.395658
H     9.223880     0.418709     1.437811
H     9.866760    -0.543042     2.438049
