24
Coordinates from ORCA-job grain_mol_opt.QMRegion
  H   2.29252311741908     -6.54748474439021     -3.96141145536484
  O   1.95340426688999     -6.21229163773706     -3.12087356062648
  H   2.35375006081821     -6.81902798754239     -2.45780982126878
  H   3.66896583019062     -5.04301150882804     -5.26907354483317
  O   4.43973878327853     -4.70010531940634     -4.77874600026321
  H   4.81729518913097     -5.40568133235102     -4.22252062153296
  H   2.19860793062845     -4.40446260534162     -6.77135738686740
  O   2.05087080843221     -4.92483771642842     -5.96527819337270
  H   1.79963581801360     -4.22671997512153     -5.29770783491930
  H   -0.91061571561565     -5.86691143425177     -5.90906513216625
  O   -0.20206290021999     -6.44914729873900     -5.60196462754321
  H   0.61820784427633     -5.93886772477307     -5.75341644162934
  H   -0.05554900547779     -8.09919379704509     -5.15408946459385
  O   0.11362383590722     -9.06809772561571     -5.05069241091978
  H   0.58705576346674     -9.24610943316562     -5.88290571079764
  H   2.21479978032307    -10.73562553530064     -3.57919494301364
  O   2.07722144221432     -9.79530265741780     -3.46052642174721
  H   1.27223033203248     -9.52302822908157     -3.99034409157934
  H   4.21069094878024     -7.51984176363503     -4.36804626896689
  O   3.44567934834387     -7.85664091722018     -4.87222272445547
  H   3.15572401167413     -8.64210378293141     -4.36283775742944
  O   1.95014839933220     -8.70082196856303     -7.14684685999228
  H   1.55836175427255     -7.93549007839456     -7.58041193263506
  H   2.62263860062709     -8.31652080400234     -6.55484820037811
