603

H     0.211917     3.031225    -0.673470
O     0.735220     2.362788    -1.165845
H     1.673902     2.491457    -0.890458
H    -0.070075    -1.305291     3.157520
O     0.322549    -0.605613     2.613021
H    -0.154839     0.208306     2.845321
H    -2.387726     2.410498    -0.534639
O    -2.178765     1.940178     0.289887
H    -2.193491     0.992313     0.065044
H    -4.655795     0.547473     2.180454
O    -4.972839    -0.385998     2.193211
H    -4.466654    -0.863606     1.527812
H     0.073439    -0.307586     0.957509
O    -0.123471    -0.071407     0.030375
H     0.216724     0.824975    -0.090283
H    -0.148433    -3.575313     3.785053
O    -0.428511    -2.745441     4.205091
H     0.216817    -2.573912     4.907406
H    -4.878465     2.530640     1.327616
O    -4.240016     2.121219     1.943487
H    -3.396394     2.103620     1.432019
H    -3.235948     3.897225    -2.212345
O    -2.498855     3.300206    -1.980139
H    -2.138502     3.012640    -2.839100
H    -0.115105    -3.804082     0.510174
O     0.224302    -2.986799     0.928648
H    -0.563372    -2.499897     1.238958
H    -2.370684    -1.537568     2.472276
O    -2.180791    -2.004208     1.631886
H    -2.437581    -1.417189     0.901709
H     2.085461    -1.442723    -1.111618
O     2.316009    -1.696891    -0.194337
H     1.525841    -2.123092     0.188792
H    -1.383231     1.825285     1.914970
O    -1.477299     1.427813     2.790850
H    -1.463129     2.140253     3.455694
H     0.221779    -2.702945    -1.562841
O    -0.534214    -2.091950    -1.618715
H    -0.355736    -1.364834    -0.985222
H    -3.425288    -2.925664    -0.389695
O    -2.707357    -3.417878    -0.809204
H    -1.996993    -2.787059    -1.026598
H     2.779469     0.130311     2.943002
O     2.875834    -0.052303     3.905326
H     2.966969     0.840778     4.309580
H    -3.519786     6.379988    -0.544695
O    -3.280856     7.042512    -1.244758
H    -3.139432     7.887648    -0.774416
H     3.910489     0.584975     1.198655
O     2.958855     0.402900     1.313084
H     2.723757    -0.348780     0.732539
H    -5.769032     0.841931    -1.607963
O    -4.858831     1.169339    -1.480537
H    -4.970532     1.997987    -0.969458
H    -1.206104     5.398095     2.212157
O    -1.831076     4.650937     2.095112
H    -1.909539     4.232340     2.957586
H     3.503041     2.763862     0.435375
O     3.253595     2.720405    -0.503380
H     3.590074     1.879513    -0.854326
H     1.505301    -4.696937    -2.241787
O     1.568883    -3.919964    -1.668312
H     2.363660    -3.458134    -2.018008
H    -0.907826    -0.085044    -2.543542
O    -0.273423     0.567184    -2.867484
H    -0.013554     1.150087    -2.130632
H     1.710559    -4.684696    -0.169557
O     1.816935    -5.322085     0.572950
H     1.353351    -6.132935     0.276582
H    -1.211438    -3.265807    -2.875469
O    -1.037203    -3.949724    -3.535561
H    -0.911528    -4.796260    -3.065802
H    -2.778425     3.310133     4.705040
O    -1.797191     3.307722     4.672508
H    -1.505330     2.906132     5.509143
H     0.964835     5.036481     4.081140
O     0.018586     5.268539     4.132702
H    -0.453318     4.465038     4.389561
H    -1.718971    -4.650406    -0.367321
O    -0.954400    -5.191670    -0.081549
H    -1.302915    -5.877602     0.497191
H    -3.904971     5.831350    -2.600083
O    -4.255465     4.997339    -2.930402
H    -4.098579     4.962195    -3.898224
H    -2.422962    -3.688543     1.939155
O    -2.441719    -4.592883     2.314778
H    -1.502122    -4.830432     2.457182
H    -4.680832    -2.980721    -2.899425
O    -3.828028    -3.213871    -3.304608
H    -3.497373    -4.006854    -2.838121
H     0.342166     1.378668     4.620711
O     0.847900     2.138972     4.287305
H     0.896395     2.798005     4.994090
H    -4.642068    -5.170751    -1.570880
O    -5.344961    -4.817536    -0.998334
H    -5.132860    -5.171285    -0.113677
H     2.343121    -6.482073    -4.029311
O     2.005232    -6.153382    -3.176197
H     2.438592    -6.726841    -2.512089
H     0.482872    -3.379704    -3.998726
O     1.286425    -3.013786    -4.421174
H     0.968122    -2.641287    -5.269711
H     1.970981    -1.751185     2.990373
O     2.125821    -2.682475     2.774102
H     1.441046    -2.895806     2.105952
H    -3.000308    -1.809839    -3.208389
O    -2.578315    -0.923382    -3.143120
H    -3.233394    -0.277783    -3.463705
H    -3.183211     4.975989     1.079168
O    -3.964519     5.349027     0.623565
H    -4.380663     5.907038     1.328999
H     0.882140     2.254835     2.596894
O     0.983666     2.249460     1.625839
H     1.711912     1.627195     1.462780
H     0.199975     5.657334    -0.754228
O     0.721233     6.319519    -1.262958
H     0.863313     7.119171    -0.706999
H     0.347900     7.037284     2.594742
O    -0.013568     6.656351     1.777299
H     0.651134     5.986052     1.516492
H    -2.475181     0.216313     3.342797
O    -2.697640    -0.597680     3.847636
H    -1.937845    -0.636727     4.470354
H    -0.892893     0.555783     6.029308
O    -0.618162     0.035653     5.255603
H     0.095652    -0.567029     5.543205
H     0.717648    -4.992845     1.988152
O     0.174296    -5.102736     2.791797
H     0.318853    -6.023171     3.064379
H    -2.108476    -8.087864     0.452829
O    -1.787086    -7.600150     1.238563
H    -2.573962    -7.288251     1.693187
H    -0.367910     6.863834    -2.322587
O    -1.113992     7.283435    -2.823031
H    -1.904472     7.156922    -2.260252
H    -1.105558     4.310018     0.576603
O    -0.731683     4.371194    -0.319042
H    -1.437187     4.128724    -0.952322
H    -4.405274     2.748137     3.505399
O    -4.405606     2.918729     4.469976
H    -4.488963     2.035716     4.879086
H     2.028446    -3.580255     4.253383
O     1.964332    -4.052930     5.106417
H     2.469814    -3.515455     5.737744
H     4.696254    -3.193631     0.851805
O     4.537110    -3.120999    -0.115146
H     3.679439    -2.641320    -0.200164
H    -2.710949    -0.748425    -1.350131
O    -3.039983    -0.478897    -0.476198
H    -3.839888     0.047302    -0.684290
H    -1.600238    -0.761393    -4.628163
O    -1.092079    -0.546251    -5.431519
H    -0.383021     0.051045    -5.145725
H     1.808918    -1.715309    -3.369399
O     1.900120    -0.968940    -2.745892
H     1.123454    -0.391168    -2.878179
H     3.670009    -3.120142     2.561702
O     4.628952    -3.350415     2.489830
H     4.682369    -4.310409     2.617442
H     3.432070    -6.119974     3.134955
O     3.789083    -5.920292     2.234906
H     3.052645    -5.573787     1.690968
H    -3.328655     1.609864    -4.177635
O    -4.173990     1.139344    -3.988028
H    -4.392633     1.285248    -3.031659
H    -5.073651     4.147410     0.063773
O    -5.512159     3.281315    -0.039938
H    -6.442120     3.400482    -0.322967
H     6.751467    -1.173723    -1.338258
O     5.970524    -1.032188    -0.798011
H     5.554686    -1.901174    -0.602721
H     4.606462    -3.168213    -2.457023
O     3.739635    -2.998570    -2.874902
H     3.744453    -3.616826    -3.631273
H     4.436646    -2.291330     5.633748
O     4.093193    -2.757206     6.426792
H     4.428627    -3.661970     6.345416
H    -0.752587     6.339501     5.077899
O    -1.350188     6.915475     5.615026
H    -1.363082     7.792336     5.173178
H     4.710591    -0.132760    -1.454172
O     3.941996     0.406792    -1.719195
H     3.251433    -0.195383    -2.049374
H    -0.728554     4.522601    -4.034325
O    -1.511006     5.065612    -4.243761
H    -1.359998     5.932377    -3.821201
H     0.672176     3.203448    -2.652725
O     0.679157     3.579616    -3.561534
H     0.729044     2.815992    -4.146559
H    -5.376044    -5.193023     1.793500
O    -4.678863    -5.788003     1.439547
H    -3.838756    -5.371749     1.711033
H     7.860353    -1.689973    -4.063896
O     7.653550    -1.353287    -3.159405
H     7.132522    -0.520795    -3.308044
H     3.717551    -5.072268    -5.279055
O     4.480321    -4.699887    -4.797401
H     4.862604    -5.411121    -4.250685
H    -3.781558     0.019765     4.934857
O    -4.383151     0.483789     5.566796
H    -5.043758    -0.174235     5.857714
H     3.475198    -5.942384    -0.508579
O     4.348532    -5.695254    -0.824886
H     4.423584    -4.732614    -0.680711
H     5.018397    -0.336366    -4.147200
O     4.482583    -1.047405    -4.538572
H     4.154006    -1.629174    -3.820983
H    -1.158137     1.571233    -3.933260
O    -1.808572     2.191071    -4.320295
H    -1.449593     2.522881    -5.165921
H     4.897119    -6.322388    -2.301104
O     5.232292    -6.647129    -3.166137
H     6.048600    -7.129956    -2.977634
H     8.742106    -5.105876    -2.919820
O     8.064956    -5.513686    -2.339071
H     8.090368    -6.471859    -2.439888
H     2.346389     4.720493     0.458838
O     1.765409     4.702765     1.228796
H     1.408733     3.782209     1.306253
H    -4.411679    -2.632965     4.231591
O    -5.305485    -2.293739     4.027908
H    -5.167943    -1.512750     3.452273
H    -5.838504    -3.195376     1.315857
O    -6.302076    -3.752295     1.983836
H    -6.114696    -3.316433     2.834439
H     1.686229     3.471424     6.868913
O     1.063553     3.986456     6.334273
H     0.279971     4.139644     6.904849
H     5.004785    -2.167403     3.628534
O     5.023716    -1.450615     4.293926
H     4.213318    -0.892717     4.134745
H     2.394470    -5.574132     4.848514
O     2.774720    -6.458377     4.589380
H     2.029684    -7.039780     4.414898
H     2.275274    -4.518035    -6.780721
O     2.105791    -5.006089    -5.964961
H     1.839338    -4.314516    -5.310347
H     6.448672    -4.102494    -0.487274
O     7.200335    -4.508659    -0.023967
H     7.707821    -4.931525    -0.744320
H    -1.726918     4.492780     7.702627
O    -0.828813     4.591181     8.089643
H    -0.647818     5.550363     8.113348
H    -5.102909     5.691754    -5.600000
O    -4.495412     4.928196    -5.619400
H    -3.737149     5.142634    -6.184059
H     3.301655    -2.529636    -8.426448
O     3.213724    -3.062652    -7.625339
H     4.089497    -3.036985    -7.195283
H    -0.649419     8.826504    -2.277207
O    -0.527367     9.655307    -1.758612
H     0.234379     9.481234    -1.180960
H     2.068642    -0.910077     5.219390
O     1.495491    -1.436035     5.806602
H     1.588285    -1.090098     6.703677
H     5.222992    -2.024421    -5.679577
O     5.571404    -2.791125    -6.200198
H     5.294899    -3.580972    -5.684082
H     5.698374    -5.212400     4.700098
O     5.176053    -5.128232     5.526632
H     4.453884    -5.759349     5.440140
H    -3.974685     1.148748     7.006745
O    -3.783875     1.624743     7.850789
H    -4.660324     2.010444     8.110188
H    -1.842722     9.614743    -0.746566
O    -2.703801     9.488637    -0.273060
H    -3.314567     10.116617    -0.662375
H    -5.936425     4.688552    -2.943038
O    -6.844682     4.569033    -3.288278
H    -6.753136     3.866332    -3.964882
H     0.105366    -7.064498    -1.135187
O     0.568847    -7.500507    -0.387057
H    -0.111064    -7.694724     0.261251
H    -7.626665     3.790303    -1.979833
O    -7.889240     3.203675    -1.239900
H    -7.745292     2.294855    -1.578695
H     3.973818    -0.889042     6.996605
O     3.982456     0.075086     6.988380
H     4.794463     0.365449     6.556343
H     2.267701     5.796222    -1.174627
O     3.202871     5.504024    -1.058139
H     3.381817     4.963568    -1.850604
H     6.556849    -5.930559     0.688438
O     6.188535    -6.666621     1.222259
H     5.283760    -6.389186     1.448386
H    -3.870737     4.732396     7.779265
O    -3.303191     4.269387     7.121276
H    -3.496537     3.325980     7.231815
H     5.771159    -7.945310     0.153731
O     5.485716    -8.631986    -0.485442
H     4.655742    -8.307861    -0.879428
H    -0.558997     2.045302     7.697126
O    -1.191422     1.980154     6.961434
H    -2.060341     1.838677     7.357019
H    -6.375371    -0.120768     1.059515
O    -6.694726    -0.205073     0.146359
H    -7.613504    -0.475713     0.163672
H    -5.362435    -3.063879    -0.588767
O    -5.111213    -2.361687     0.037363
H    -5.680829    -1.588729    -0.151219
H     4.326206     5.578518     0.328716
O     4.657413     5.680771     1.234653
H     3.961509     6.190753     1.684806
H    -9.032562    -1.746013    -2.258633
O    -8.485713    -1.544114    -1.472024
H    -8.613579    -2.280479    -0.834158
H    -5.509517     3.468864    -5.530739
O    -6.027254     2.758222    -5.116432
H    -5.361020     2.173184    -4.701464
H     3.196952    -0.889304    -5.645414
O     2.341513    -1.010578    -6.111872
H     2.427825    -1.859587    -6.584880
H     8.131355    -1.349445    -6.011773
O     8.138302    -2.214752    -5.556404
H     7.281130    -2.612575    -5.808405
H     7.640668     0.984794    -6.291606
O     7.450026     0.137814    -6.707396
H     6.468647     0.090726    -6.744252
H    -7.852967    -3.692069     0.927089
O    -8.530711    -3.585800     0.241936
H    -8.431465    -4.345411    -0.359326
H    -2.401619     8.737954     1.291573
O    -2.251801     8.149867     2.045150
H    -1.481244     7.596690     1.823641
H    -4.440600     6.437650     3.493923
O    -4.610098     6.863270     2.637087
H    -3.846493     7.449117     2.497915
H     3.413641     3.446427    -3.569178
O     3.258393     4.415371    -3.476843
H     2.293743     4.479100    -3.585763
H    -6.102911    -1.606746    -3.443727
O    -6.186906    -2.185855    -2.659732
H    -6.971322    -1.878241    -2.152019
H     6.469758     1.053208     4.752081
O     6.075298     1.591436     5.455506
H     6.262575     2.510101     5.163691
H     1.376868     1.720381    -5.816284
O     1.180183     1.124477    -5.062657
H     1.545724     0.261875    -5.330802
H    -2.494516     2.968652     10.484908
O    -2.282107     2.060799     10.212598
H    -2.878554     1.860863     9.479268
H     7.632210    -0.493047     3.095040
O     6.882472     0.080801     3.270423
H     6.189790    -0.520653     3.645053
H    -5.649386    -8.054113    -0.698830
O    -4.915313    -8.122557    -0.051492
H    -4.919695    -7.304947     0.470023
H    -5.163384    -0.120420    -4.716100
O    -5.780057    -0.832427    -4.956411
H    -6.617997    -0.390916    -5.155726
H     1.907608    -0.200901    -7.507017
O     1.706494     0.269663    -8.351713
H     2.284660    -0.135367    -9.003594
H     4.892162    -1.396334    -9.291899
O     3.967122    -1.168888    -9.575490
H     3.948538    -1.286008    -10.524637
H     7.569715    -2.564661     4.210733
O     7.721335    -2.604957     3.252188
H     7.223036    -3.392790     2.981170
H     6.725759    -5.893347     2.701585
O     6.787845    -5.216761     3.401184
H     7.662717    -5.302053     3.820717
H    -1.818147     8.950000     3.496143
O    -1.571989     9.255328     4.394721
H    -2.421502     9.387684     4.848850
H    -7.375665     1.565596    -5.254969
O    -7.950756     0.821455    -5.010460
H    -8.852580     1.221029    -4.935694
H     6.944083    -1.084264    -8.389889
O     6.364092    -1.806832    -8.653955
H     6.134427    -2.255264    -7.821799
H    -1.660259     6.238651    -7.022033
O    -2.058823     5.413699    -6.748496
H    -1.811267     5.283232    -5.784456
H    -0.002608     3.316027     9.027296
O     0.194147     2.396475     9.283440
H    -0.604928     2.132539     9.788778
H     6.768765    -2.776970    -2.689688
O     6.239903    -3.522028    -2.348459
H     6.705688    -4.333497    -2.596925
H    -4.063156    -3.074653    -4.941542
O    -4.216229    -2.962696    -5.906620
H    -4.763407    -2.169649    -5.963874
H     1.977491     2.188493     8.472505
O     2.642173     2.300970     7.783297
H     3.064882     1.430881     7.668447
H    -6.897603    -5.201685    -1.395752
O    -7.812788    -5.471624    -1.642408
H    -7.945340    -5.069383    -2.525678
H    -3.826736     5.259916     5.695527
O    -3.793513     6.028190     5.104569
H    -2.859600     6.322623     5.199436
H    -7.874592     0.087499    -1.970300
O    -7.384486     0.810934    -2.383701
H    -7.611509     0.799335    -3.337213
H     5.850133     0.140177     0.422605
O     5.613754     0.851835     1.048712
H     6.133347     0.662622     1.856187
H    -6.216582     3.315814     7.392732
O    -6.089845     2.798018     8.221867
H    -6.689833     2.036541     8.133121
H     2.287664    -8.072904    -0.830021
O     2.966007    -8.061398    -1.525060
H     2.741126    -8.775406    -2.138271
H    -2.728785    -3.963869    -6.192728
O    -1.975484    -4.530074    -5.959664
H    -1.700236    -4.237716    -5.062418
H    -5.642728     3.764973     5.306339
O    -6.292580     4.161828     5.922618
H    -6.128927     5.105859     5.908879
H    -1.006310    -7.115045    -3.154993
O    -0.534378    -6.445158    -2.626511
H     0.373322    -6.375560    -3.006581
H     4.446383     2.020840     5.138642
O     3.504572     2.259549     5.017969
H     3.119691     2.276389     5.899516
H     4.109511     4.661812     6.309351
O     4.189625     5.392553     5.691887
H     3.624027     5.150887     4.919805
H     2.768357     3.620946     3.930045
O     2.589629     4.560811     3.763822
H     2.472305     4.658945     2.797063
H     9.470429     0.605018    -0.579401
O     8.568780     0.622730    -0.215863
H     8.368304    -0.288216     0.039181
H    -2.106435     5.327907     10.651441
O    -2.828591     4.699365     10.882470
H    -3.048095     4.877376     11.797212
H     7.949920    -3.100342     0.404009
O     8.408730    -2.258107     0.624486
H     8.366280    -2.250698     1.592432
H     5.375793     3.667955     3.534786
O     6.028989     3.933326     4.204191
H     5.615765     4.653051     4.702734
H    -4.213563     5.029132     9.783279
O    -4.846057     5.179646     9.060652
H    -5.457551     4.430730     9.057719
H    -6.998487    -3.478943    -3.486146
O    -7.618346    -4.091255    -3.934904
H    -7.096381    -4.533549    -4.636271
H     0.021675     6.136407     10.773715
O    -0.842615     6.467903     10.525544
H    -0.725952     6.897585     9.658866
H     2.602692     1.494337    -4.095851
O     3.480816     1.847411    -3.857921
H     3.801181     1.334175    -3.085946
H    -6.973425    -0.213141     7.217347
O    -7.482658     0.565266     7.496809
H    -8.104664     0.748525     6.791628
H    -2.733552    -9.872715    -0.821552
O    -2.670144    -8.931221    -0.982149
H    -3.576310    -8.564480    -0.742654
H    -10.054974     3.074370    -4.905910
O    -10.172573     2.157088    -4.624799
H    -10.389168     2.241763    -3.675296
H    -2.065117    -3.020316     4.619358
O    -2.940056    -3.460579     4.688335
H    -2.933089    -4.078598     3.932258
H    -0.173052    -7.979638     2.495934
O     0.652914    -7.769507     2.944769
H     1.371737    -8.065394     2.358692
H     6.708550    -2.369691     6.405418
O     7.157838    -3.080962     5.943936
H     6.526702    -3.814778     5.906157
H    -5.272533    -1.997720     6.944604
O    -5.948580    -1.500247     6.459694
H    -5.930984    -1.877524     5.550638
H     0.851909     3.030017    -7.109398
O     1.769613     2.699414    -7.164651
H     1.756731     1.951385    -7.789762
H    -3.955503     8.762098     6.669256
O    -3.953205     8.759510     5.711887
H    -4.077435     7.831702     5.444533
H    -2.049282     10.313844    -2.739601
O    -2.950539     10.495522    -3.042637
H    -2.877712     11.128642    -3.756170
H     9.412690    -4.054682     4.064659
O     9.135581    -4.734378     4.686645
H     8.702032    -4.263831     5.409681
H    -0.719713    -5.999161    -5.831840
O    -0.016416    -6.565531    -5.497659
H     0.819179    -6.103864    -5.714652
H     1.832176     8.277467     0.667233
O     1.529670     8.598965    -0.210796
H     2.344914     8.636007    -0.740581
H     3.513173     2.927269    -6.653882
O     4.340404     2.636130    -6.244733
H     4.095841     2.364734    -5.334937
H     3.742449     7.125925    -1.223682
O     3.947618     8.061610    -1.438118
H     4.319041     8.004068    -2.330518
H     4.412316    -0.008830    -7.900907
O     4.788720     0.135944    -7.030992
H     4.607806     1.068190    -6.786981
H     6.034169     1.942958    -0.472162
O     6.598241     2.126846    -1.236310
H     7.425452     1.654166    -1.020744
H     6.694172    -8.430791    -1.587786
O     7.332427    -8.220557    -2.323019
H     7.697483    -9.055362    -2.611411
H    -5.286964    -5.789816    -5.404273
O    -5.903830    -5.118165    -5.720368
H    -5.352449    -4.349962    -5.956720
H     0.680962     7.179712     7.603901
O    -0.220996     7.207645     7.962474
H    -0.775504     7.221705     7.144259
H    -8.884627    -2.834508    -4.104823
O    -9.405498    -2.026015    -3.938537
H    -9.118604    -1.361395    -4.568571
H    -2.399270    -5.987832    -2.136666
O    -3.277276    -5.702137    -2.406352
H    -3.463399    -6.077028    -3.292201
H    -2.972350    -5.901188    -5.403428
O    -3.572663    -6.510902    -4.931604
H    -3.090825    -7.330987    -4.763908
H    -1.375029     3.724424    -6.980674
O    -0.835155     2.968729    -6.708881
H    -1.071432     2.183280    -7.258502
H    -0.186617     0.414511    -8.210387
O    -1.083230     0.649387    -7.928488
H    -1.258905     0.126786    -7.130000
H    -10.412036     4.053266    -2.742583
O    -10.480206     3.274983    -2.174019
H    -9.651185     3.248729    -1.664484
H     4.587253     4.082715     1.729081
O     4.378364     3.162546     2.008911
H     5.093592     2.585633     1.726924
H     6.503699     1.390199    -4.201718
O     6.200787     0.765348    -3.508476
H     6.230792     1.264797    -2.664999
H     9.614132    -2.308282    -0.928790
O     9.910859    -2.121441    -1.837253
H     9.125054    -1.694829    -2.250647
H     9.946448    -3.467365    -3.202390
O     9.720289    -4.114732    -3.896085
H     9.238561    -3.602754    -4.560773
H    -7.688631    -8.573749    -1.663668
O    -6.950555    -7.979632    -1.791699
H    -7.328116    -7.066509    -1.782896
H     4.173344     6.080297    -3.813457
O     4.833967     6.781964    -3.728431
H     5.669945     6.327884    -3.589151
H     0.111805    -8.171729    -5.204671
O     0.135877    -9.154579    -5.072134
H     0.286794    -9.518864    -5.944403
H    -2.321675    -8.673313    -2.707363
O    -2.086810    -8.410303    -3.616898
H    -1.439707    -9.028978    -3.974343
H     2.195017    -10.817011    -3.480473
O     2.149721    -9.862394    -3.457353
H     1.364818    -9.591708    -3.984482
H     6.852928     3.324849    -4.561049
O     6.907525     2.647235    -5.262884
H     6.115038     2.784557    -5.803484
H    -3.564813    -3.716153     7.725139
O    -3.678960    -2.928726     7.194508
H    -3.426459    -3.168064     6.276595
H    -0.622441    -3.364091    -6.717313
O     0.008145    -2.632986    -6.724613
H    -0.473613    -1.857038    -6.383885
H     0.639654     0.468557     8.758874
O     0.648022    -0.247259     8.119441
H    -0.274174    -0.535834     8.030535
H    -5.822052     7.367623    -4.256425
O    -6.324495     6.748515    -4.817647
H    -6.611737     6.017752    -4.226375
H    -4.267939     9.103428    -3.267694
O    -4.803885     8.307457    -3.161356
H    -4.396015     7.828266    -2.421894
H    -9.698827     5.796299    -4.654437
O    -10.232359     4.991690    -4.491049
H    -11.112604     5.192351    -4.810963
H     2.768759     6.521373     6.145507
O     1.808535     6.618164     6.242805
H     1.465138     5.704836     6.139858
H     4.810543     8.549743     0.089978
O     5.126431     8.551360     1.011452
H     5.533837     7.687334     1.143155
H     4.155913    -7.426811    -4.327471
O     3.398975    -7.712268    -4.870850
H     3.117656    -8.552667    -4.494218
H     0.379063     8.664459     4.235911
O     1.057273     8.019995     4.008933
H     1.283005     7.527491     4.824006
H     5.246927     4.189714    -3.146984
O     6.208229     4.162274    -3.095014
H     6.419462     3.578141    -2.348952
H    -2.578441    -1.538075     7.577252
O    -2.068359    -0.744849     7.797775
H    -2.694670    -0.118182     8.170429
H    -9.015999     7.936515    -4.155348
O    -8.951919     7.351518    -4.911740
H    -7.994605     7.187420    -5.045572
H     3.537646    -8.977494     1.106258
O     2.860399    -8.345749     1.353372
H     3.334019    -7.539883     1.633697
H     3.589288     8.175377     1.833733
O     2.797991     7.612762     1.945720
H     2.351735     7.848594     2.771712
N     11.107568     0.316365    -1.437883
H     10.904224    -0.620841    -1.644900
H     11.937468     0.297041    -0.954607
