36
Coordinates from ORCA-job grain_mol_opt.QMRegion
  H   -4.57496401942430     -5.13603705845470     -1.54690635643643
  O   -5.31388776356510     -4.84690018257336     -0.96790180460362
  H   -5.06448054771520     -5.18998215788359     -0.08597222090388
  H   -5.79686108166123     -8.10161568138943     -0.31805553376034
  O   -5.08629016708347     -8.22829612179615      0.34186224483832
  H   -4.99448375774941     -7.36897228880674      0.79295787485410
  H   -6.82391812763689     -5.28070765191514     -1.38026105422765
  O   -7.74029040805767     -5.56618781021273     -1.64737347385649
  H   -7.84480946489709     -5.12534077866814     -2.52225415116355
  H   -0.89784073886609     -7.16319336634945     -3.12359047214667
  O   -0.45940530355573     -6.44826299980007     -2.62772630362382
  H   0.44588677067260     -6.35236002649352     -3.01995021536395
  H   -6.96360679228569     -3.43662308401594     -3.47176757386608
  O   -7.56384038746986     -4.07828150678289     -3.92204042228890
  H   -7.04225677748927     -4.40760652594298     -4.68689191265603
  H   -2.68592482747162     -9.78709976792823     -0.59075326316509
  O   -2.79612572759788     -8.86309023805429     -0.82955541709741
  H   -3.70113968565452     -8.62543561419776     -0.48346543861744
  H   -5.34047924676486     -5.69029579423221     -5.69326810271501
  O   -5.94690785865718     -4.98561956873151     -5.96396271638930
  H   -5.34028526098231     -4.23071356693688     -6.12265513601476
  H   -2.39750941760149     -5.82148898836239     -2.24649220106318
  O   -3.31641184206582     -5.68410620173282     -2.51342342670282
  H   -3.40303689070627     -5.98725522212991     -3.44632071072438
  H   -2.92869464235165     -5.81704485110966     -5.56580180771812
  O   -3.51116323912303     -6.46349652479602     -5.11078893573576
  H   -2.93737125636468     -7.23913172124294     -4.94104341167196
  H   -7.60552059946951     -8.64854682074542     -1.72839362822725
  O   -6.87151573648293     -8.03197990933432     -1.79845187689892
  H   -7.29454072507300     -7.11601756840226     -1.80502541227184
  H   -2.82152071680347     -8.75623840455744     -3.40553888051301
  O   -2.04640082460542     -8.36734758442132     -3.85725229671936
  H   -1.52111971988692     -9.07370911599324     -4.25281657178179
  O   -4.77812833688809     -9.00843076670202     -3.49683182375791
  H   -5.04075300854682     -8.69963357981648     -4.36906643962335
  H   -5.45775935352543     -8.63184280488277     -2.90447417715346
