33
Coordinates from ORCA-job grain_mol_opt.QMRegion
  H   0.40637226941115     -3.34492243084692     -4.05360657505627
  O   1.31187910353624     -3.08715792607221     -4.32752429416309
  H   1.20547586374308     -2.45964783182361     -5.05946569079202
  H   -1.53375035586775     -0.85265442509698     -4.50852495057346
  O   -1.00898431682895     -0.67303961323301     -5.31394881663790
  H   -0.33177125701167     -0.03373031506897     -5.02633549667864
  H   2.26256899605151     -4.67181712447911     -6.77767277182763
  O   2.10704903728231     -5.10689130812473     -5.92938474618075
  H   1.80917823801015     -4.38074024727112     -5.32829196322773
  H   3.36968909307991     -2.66397575418446     -8.48183358433347
  O   3.26530196366620     -3.15043045852058     -7.64297865468736
  H   4.16043353395670     -3.13594689356668     -7.24939690926556
  H   3.21434662695179     -0.97440801588379     -5.57033556416432
  O   2.37031124170172     -1.15356639887538     -6.04996116179234
  H   2.60359352220063     -1.89604030945043     -6.65543713540185
  H   1.83781395870557     -0.20124967060958     -7.47539503975612
  O   1.37072859121311      0.21359043587658     -8.23117439479006
  H   1.34987944538346     -0.48528588615562     -8.90547230264462
  H   5.00337599507705     -1.45468394971106     -9.32439028600211
  O   4.05967544010098     -1.19734169492900     -9.48282278749886
  H   3.97541768218799     -1.11917515392061    -10.43624960104060
  H   -2.83526408777311     -4.01308322692137     -6.08890592073798
  O   -2.04662941120720     -4.55159565167770     -5.89666794866198
  H   -1.77141420993005     -4.27643458335381     -4.99050258547745
  H   -0.41622531915771      0.40887875645661     -8.00143270399954
  O   -1.36186646414424      0.61487339250227     -7.83492030760876
  H   -1.54427973241196      0.16234383017310     -6.99627627832574
  H   -0.76152671443644     -3.46316291618742     -6.75137334196456
  O   -0.12898311438285     -2.74800214220060     -6.93894671075755
  H   -0.49307706453047     -1.99182756288107     -6.43738320359987
  O   0.78296058707803     -2.22118756018870     -9.47162615623206
  H   0.05610133332808     -2.22918911519818    -10.09959184809360
  H   0.37093005976454     -2.46368903092404     -8.61007406649454
