36

H     1.962230    -3.675729     4.184875
O     1.784605    -4.126681     5.037244
H     2.410764    -3.708983     5.656855
H     4.373777    -2.690614     5.750848
O     4.095147    -3.321596     6.443286
H     4.488342    -4.172159     6.136036
H     4.896136    -2.232089     3.700451
O     4.856352    -1.528589     4.384585
H     4.043548    -1.004489     4.156106
H     1.954557    -0.757155     5.231723
O     1.519745    -1.336762     5.884899
H     1.456421    -0.867134     6.736876
H     5.704947    -5.540341     4.668997
O     5.192379    -5.653360     5.500332
H     4.391867    -6.136215     5.233945
H     4.116639    -0.285992     6.632643
O     4.491105     0.387902     7.209689
H     5.129565     0.869162     6.634183
H     6.469682     1.155596     4.719865
O     6.106420     1.744373     5.410375
H     6.229392     2.655623     5.026817
H     7.410828    -0.621975     3.116414
O     6.735495     0.035770     3.333593
H     6.010347    -0.543217     3.678000
H     7.597566    -2.660916     4.296776
O     7.733559    -2.659360     3.329547
H     7.232285    -3.446586     3.055202
H     1.928301     2.245450     8.502074
O     2.675210     2.438102     7.918766
H     3.181692     1.610828     7.826053
H     7.034476    -2.671333     6.817331
O     7.345891    -3.245641     6.078291
H     6.736529    -3.991822     6.100334
N     6.000757    -2.017271     8.115546
H     5.705725    -1.098933     8.009395
H     5.233300    -2.529289     7.795081
