33

H     0.409089    -3.290599    -4.083749
O     1.314778    -3.031140    -4.355447
H     1.208915    -2.399003    -5.083487
H    -1.530790    -0.795768    -4.524069
O    -1.005598    -0.611096    -5.328068
H    -0.328626     0.026503    -5.036106
H     2.267012    -4.600268    -6.814691
O     2.111106    -5.040886    -5.969341
H     1.812779    -4.318718    -5.363693
H     3.374868    -2.581881    -8.505683
O     3.270155    -3.073468    -7.669866
H     4.165130    -3.061427    -7.275851
H     3.217896    -0.910589    -5.583618
O     2.374178    -1.086763    -6.064910
H     2.607924    -1.825405    -6.674891
H     1.842637    -0.125558    -7.484747
O     1.375823     0.294005    -8.238085
H     1.355557    -0.400439    -8.916940
H     5.009196    -1.367185    -9.339550
O     4.065593    -1.108850    -9.496955
H     3.981969    -1.024636    -10.449923
H    -2.831210    -3.946245    -6.125074
O    -2.042686    -4.485959    -5.935762
H    -1.768012    -4.216520    -5.027713
H    -0.411266     0.487816    -8.008302
O    -1.357013     0.692803    -7.841133
H    -1.540035     0.234874    -7.005562
H    -0.757225    -3.392155    -6.782820
O    -0.124502    -2.675866    -6.965416
H    -0.488909    -1.922889    -6.459289
N     0.789159    -2.133084    -9.494135
H     0.062859    -2.137763    -10.122778
H     0.376516    -2.380805    -8.634365
