33
Coordinates from ORCA-job grain_mol_opt.QMRegion
  H   7.84107747244290      0.95110818193783     -6.35266295295787
  O   7.54353860115814      0.14376641664910     -6.78280846571117
  H   6.56220636954728      0.20502901862369     -6.81381250902850
  H   3.28200157842671      3.57365789525458     -3.58179833884940
  O   3.10546314445493      4.54242892960931     -3.55433523148304
  H   2.12738077117845      4.53471557246464     -3.56791449076109
  H   2.51736079354742      1.54280698442518     -4.11274865712721
  O   3.39178135520012      1.90939458138046     -3.85630057914879
  H   3.72305096578116      1.35093408991896     -3.12189030757731
  H   0.71608814014742      2.93470924521448     -7.13038889827994
  O   1.64592642182968      2.62961237871560     -7.23207627961550
  H   1.61617222807777      1.84433409880088     -7.82041863160430
  H   3.30317157139700      2.88253775459603     -6.65558646190272
  O   4.20558020205227      2.69956176102269     -6.33000734961292
  H   4.05073957638040      2.39050501787763     -5.41020443441378
  H   4.46662586645264     -0.01968707654592     -7.99317908840878
  O   4.81555515679030      0.17719585864249     -7.11750328200559
  H   4.53953607709350      1.09939143388281     -6.92922851692658
  H   6.56970643147118      1.48915342390080     -4.15047776405840
  O   6.20646572934752      0.83340877450112     -3.51875097537150
  H   6.23836040406273      1.26479232787336     -2.64339156751307
  H   4.19757221165692      6.11411426735625     -3.80561908729311
  O   4.95601891691276      6.72408891849339     -3.78684257328152
  H   5.57372510455530      6.26542995464800     -3.19779814339837
  H   7.57485845940446      3.28555698527920     -4.14008505965529
  O   7.43107998458684      2.82230213905343     -4.97651188996040
  H   6.93400493635015      3.51240256782246     -5.48040224350500
  H   5.39216896493914      4.03336027962589     -2.97366815238322
  O   6.23679990203583      4.34091949417378     -2.62585349592600
  H   6.43135481986504      3.68683157123510     -1.93137354114354
  O   5.96814518620110      4.83437724602679     -6.15964356309039
  H   5.72189250472632      5.52400335272316     -5.52432933395053
  H   5.17558076527519      4.27177634233250     -6.25561408345297
