39

H    -3.753778    -0.019449     4.869091
O    -4.347070     0.427830     5.528581
H    -5.036054    -0.223065     5.738089
H    -4.013483     1.217353     6.973739
O    -3.881086     1.875426     7.701006
H    -4.783001     2.190612     7.952665
H    -3.860678     4.894523     7.794978
O    -3.290814     4.457007     7.121695
H    -3.520845     3.507944     7.167255
H    -0.572797     2.054734     7.646198
O    -1.190829     1.940466     6.904867
H    -2.030662     1.693306     7.303914
H    -2.675586     2.993887     10.443268
O    -2.497994     2.083499     10.140181
H    -2.971566     2.016072     9.285475
H    -0.123862     3.359732     8.981416
O     0.153851     2.459053     9.261831
H    -0.630421     2.158021     9.757787
H    -6.439142     3.351223     7.351110
O    -6.245663     2.948606     8.235284
H    -6.800372     2.162157     8.322969
H    -6.465521    -0.504076     7.805954
O    -6.557600     0.021176     8.626004
H    -7.234283    -0.446493     9.124518
H    -5.177520    -2.157256     6.811486
O    -5.948662    -1.656718     6.474093
H    -6.021138    -1.974933     5.548489
H    -3.520576    -3.804932     7.611875
O    -3.549593    -3.008341     7.074510
H    -3.341000    -3.308705     6.159736
H     0.824404     0.394052     8.521900
O     0.780272    -0.518587     8.220805
H    -0.178778    -0.703124     8.172208
H    -2.366377    -1.577151     7.552421
O    -1.997030    -0.782755     7.966242
H    -2.584298    -0.664818     8.738289
N    -3.863555    -0.473657     10.081524
H    -4.695576    -0.254159     9.633486
H    -3.558134     0.372074     10.448542
