36

H     0.121890     5.591179    -0.812078
O     0.637620     6.271408    -1.317591
H     0.819555     7.032158    -0.712369
H    -0.560538     6.896401    -2.281329
O    -1.270918     7.331491    -2.811875
H    -2.067163     7.199061    -2.244677
H    -0.875342     4.457429    -4.058150
O    -1.649224     5.025569    -4.227241
H    -1.454441     5.889335    -3.819657
H     0.669219     3.120551    -2.695957
O     0.635096     3.483152    -3.605639
H     0.706847     2.688987    -4.153576
H    -0.698493     8.860888    -2.211661
O    -0.548702     9.730704    -1.773223
H     0.148697     9.566694    -1.120576
H     2.230526     5.686624    -1.185255
O     3.180489     5.474050    -1.054172
H     3.405832     4.821344    -1.751804
H     3.435411     3.454048    -3.596333
O     3.762294     4.359436    -3.396213
H     3.184068     4.998328    -3.858486
H     1.901787     8.230706     0.647412
O     1.570655     8.547969    -0.227327
H     2.379118     8.608272    -0.766867
H     3.816090     7.024682    -1.363111
O     4.025456     7.957228    -1.615588
H     4.811701     7.857922    -2.188307
H     6.081200     7.196056    -4.206144
O     6.146114     7.106979    -3.251160
H     6.372236     6.166294    -3.111237
H     5.437068     4.233269    -3.257491
O     6.416804     4.240039    -3.144571
H     6.580406     3.619206    -2.413187
N     2.204432     6.631889    -3.986933
H     2.718375     7.197915    -3.391020
H     1.482737     6.318477    -3.427217
