27
Coordinates from ORCA-job grain_mol_opt.QMRegion
  H   -4.58024990026579      0.57949043776495      2.28943744744088
  O   -4.87673930760512     -0.36401888780151      2.25362599481205
  H   -4.29965990571945     -0.79189204082620      1.60812863797711
  H   -5.75906856875019     -3.24025988175191      1.44069413522016
  O   -6.24241021783952     -3.80739722264753      2.10198705828600
  H   -6.04116750334499     -3.38077953415749      2.96061497696500
  H   -6.21981868125021     -0.15021909040290      1.13639757626275
  O   -6.74116031354863     -0.31375375841783      0.32592091045264
  H   -7.62647005094483     -0.54467157964053      0.65752287854224
  H   -5.33971095121268     -3.17769278023640     -0.50298773447037
  O   -5.11713660746860     -2.46385731205041      0.12722016346996
  H   -5.75358304271626     -1.72698663921570     -0.03052701528954
  H   -9.06274405956521     -1.86253253941519     -2.29280364784528
  O   -8.53560593678102     -1.60611962202854     -1.50467916126257
  H   -8.56543144533189     -2.35517845869490     -0.87287060766013
  H   -7.75261594405591     -3.80732282996727      1.00314229949943
  O   -8.47104332697648     -3.70165608396791      0.34475948428291
  H   -8.39464297603850     -4.46846145400671     -0.25804025888940
  H   -6.09841305150109     -1.68610568485964     -3.53819449797250
  O   -6.18850298084399     -2.23203542018789     -2.72251879571548
  H   -6.96098159435049     -1.89726931202458     -2.22338608954351
  H   -7.90526194379364      0.10319848124998     -1.87642925760835
  O   -7.41157099049167      0.80173467293311     -2.33027550662267
  H   -7.67573103138592      0.78432953248629     -3.27147537095206
  O   -9.28025843858082     -1.05711687242044      1.43275087483833
  H   -9.29344843042774     -2.00492890086546      1.23336359148607
  H   -9.87477441488929     -0.68099918037319      0.77493127920176
