603

H     0.207485     3.027863    -0.655628
O     0.730856     2.359361    -1.148504
H     1.669120     2.487787    -0.872821
H    -0.080945    -1.316914     3.164958
O     0.315580    -0.616207     2.624801
H    -0.162717     0.197788     2.855892
H    -2.391950     2.408699    -0.518733
O    -2.183756     1.935650     0.304479
H    -2.200118     0.988507     0.076941
H    -4.663392     0.541513     2.189999
O    -4.980478    -0.392065     2.201295
H    -4.475374    -0.868274     1.534094
H     0.066415    -0.314347     0.968429
O    -0.128792    -0.076847     0.041472
H     0.209847     0.820509    -0.076796
H    -0.161530    -3.589260     3.786984
O    -0.439930    -2.760044     4.209658
H     0.205135    -2.592618     4.912765
H    -4.883802     2.526707     1.341864
O    -4.246101     2.114839     1.957019
H    -3.402207     2.098435     1.445964
H    -3.238405     3.899460    -2.194038
O    -2.502334     3.300685    -1.962877
H    -2.141495     3.015417    -2.822323
H    -0.124365    -3.810185     0.513160
O     0.215401    -2.994181     0.934123
H    -0.572535    -2.507254     1.243927
H    -2.380738    -1.546071     2.478214
O    -2.189015    -2.010921     1.637305
H    -2.446120    -1.422848     0.907983
H     2.078275    -1.447166    -1.102341
O     2.307995    -1.702447    -0.184954
H     1.517347    -2.129776     0.196213
H    -1.389943     1.816521     1.929713
O    -1.483376     1.416999     2.804835
H    -1.471136     2.128959     3.470475
H     0.214127    -2.705133    -1.557518
O    -0.541314    -2.093376    -1.612135
H    -0.362687    -1.367633    -0.977235
H    -3.434343    -2.927318    -0.387269
O    -2.715923    -3.419286    -0.806268
H    -2.005401    -2.788394    -1.022752
H     2.767896     0.109813     2.956924
O     2.866973    -0.074816     3.918964
H     2.955914     0.821792     4.318675
H    -3.520985     6.378937    -0.520943
O    -3.281355     7.042453    -1.219779
H    -3.139252     7.886617    -0.747672
H     3.902515     0.574548     1.212549
O     2.952834     0.389683     1.329168
H     2.715731    -0.358567     0.744435
H    -5.774008     0.844966    -1.598201
O    -4.863574     1.171096    -1.469004
H    -4.975034     1.998952    -0.956478
H    -1.208663     5.389856     2.233873
O    -1.834328     4.642986     2.114850
H    -1.913460     4.223820     2.976895
H     3.496695     2.756261     0.454074
O     3.251199     2.713671    -0.485846
H     3.584599     1.871726    -0.836498
H     1.496706    -4.698426    -2.239526
O     1.560946    -3.922714    -1.664269
H     2.356191    -3.461035    -2.013298
H    -0.913285    -0.083848    -2.533388
O    -0.277217     0.567980    -2.854912
H    -0.018391     1.149605    -2.116695
H     1.700656    -4.691208    -0.167613
O     1.805643    -5.329743     0.574198
H     1.342188    -6.139954     0.275467
H    -1.219134    -3.264101    -2.871994
O    -1.044410    -3.946588    -3.533368
H    -0.919781    -4.794364    -3.065562
H    -2.785627     3.297136     4.721685
O    -1.804446     3.291487     4.689648
H    -1.513711     2.890536     5.526582
H     0.961540     5.025779     4.106468
O     0.013647     5.253665     4.154087
H    -0.456610     4.449995     4.411435
H    -1.728661    -4.653528    -0.367176
O    -0.964503    -5.195303    -0.081228
H    -1.314151    -5.883365     0.494311
H    -3.905816     5.834946    -2.577646
O    -4.256337     5.001801    -2.910267
H    -4.099049     4.969066    -3.878086
H    -2.433560    -3.696082     1.940536
O    -2.453166    -4.600800     2.315241
H    -1.513916    -4.839974     2.456625
H    -4.688038    -2.975922    -2.897406
O    -3.834948    -3.208727    -3.302238
H    -3.505507    -4.003342    -2.837702
H     0.329688     1.363802     4.635519
O     0.843789     2.119343     4.305488
H     0.886494     2.783928     5.007561
H    -4.651657    -5.169002    -1.573734
O    -5.354402    -4.816240    -1.000734
H    -5.143369    -5.172379    -0.116835
H     2.334397    -6.480271    -4.030395
O     1.996018    -6.153020    -3.176813
H     2.428703    -6.728445    -2.513919
H     0.476290    -3.376544    -3.994354
O     1.280262    -3.009526    -4.415017
H     0.962774    -2.635919    -5.263417
H     1.958500    -1.764928     2.997854
O     2.114835    -2.695854     2.781159
H     1.430832    -2.908396     2.111613
H    -3.006407    -1.805583    -3.202755
O    -2.583708    -0.919622    -3.135044
H    -3.238102    -0.272764    -3.454736
H    -3.185880     4.971628     1.100006
O    -3.967287     5.345191     0.644818
H    -4.382959     5.902648     1.351155
H     0.877243     2.244638     2.614577
O     0.976357     2.237920     1.643202
H     1.705310     1.617316     1.479772
H     0.199204     5.654173    -0.729477
O     0.721164     6.316407    -1.237246
H     0.864006     7.115219    -0.679539
H     0.345099     7.026329     2.622985
O    -0.016758     6.646980     1.804352
H     0.648682     5.977931     1.542815
H    -2.483832     0.206347     3.352542
O    -2.707865    -0.608869     3.855100
H    -1.949084    -0.650738     4.478279
H    -0.904636     0.538305     6.041073
O    -0.629389     0.018114     5.267432
H     0.081794    -0.586759     5.553454
H     0.705813    -5.003379     1.988543
O     0.162985    -5.113858     2.792563
H     0.305557    -6.035526     3.062243
H    -2.121204    -8.092607     0.445066
O    -1.800165    -7.606354     1.231951
H    -2.587388    -7.295438     1.686648
H    -0.367771     6.864090    -2.295814
O    -1.113308     7.284477    -2.796417
H    -1.904149     7.158314    -2.234036
H    -1.108172     4.305283     0.596922
O    -0.734238     4.366139    -0.298863
H    -1.440520     4.127081    -0.932383
H    -4.411836     2.739291     3.520014
O    -4.412719     2.907229     4.485063
H    -4.497331     2.023449     4.891975
H     2.015657    -3.597270     4.256972
O     1.950418    -4.070927     5.109603
H     2.454981    -3.535694     5.742488
H     4.687605    -3.203437     0.859417
O     4.528737    -3.126587    -0.106879
H     3.670199    -2.648546    -0.191689
H    -2.717593    -0.748517    -1.342161
O    -3.046702    -0.480814    -0.467658
H    -3.846078     0.046657    -0.675018
H    -1.605003    -0.755417    -4.619401
O    -1.095965    -0.538882    -5.421820
H    -0.386765     0.057229    -5.134186
H     1.803546    -1.714282    -3.360225
O     1.895095    -0.969207    -2.734943
H     1.118465    -0.390962    -2.866447
H     3.659368    -3.133494     2.568908
O     4.618955    -3.361793     2.500209
H     4.672581    -4.322790     2.621841
H     3.419694    -6.134433     3.134407
O     3.777613    -5.930467     2.236017
H     3.040922    -5.585102     1.691611
H    -3.331721     1.616531    -4.164526
O    -4.177118     1.145724    -3.976225
H    -4.396480     1.290168    -3.019802
H    -5.076719     4.146095     0.081916
O    -5.515919     3.280511    -0.024232
H    -6.445600     3.401257    -0.307542
H     6.738759    -1.188737    -1.335728
O     5.966762    -1.040201    -0.783198
H     5.546162    -1.907983    -0.589733
H     4.599965    -3.172488    -2.450876
O     3.732780    -3.000054    -2.867697
H     3.737120    -3.616945    -3.625409
H     4.426911    -2.318030     5.637455
O     4.082701    -2.778103     6.434061
H     4.412908    -3.685166     6.354002
H    -0.754132     6.324505     5.103345
O    -1.354089     6.898261     5.640917
H    -1.364539     7.776589     5.201829
H     4.704416    -0.142552    -1.440847
O     3.937764     0.400657    -1.703516
H     3.245535    -0.198329    -2.036978
H    -0.729123     4.527249    -4.013383
O    -1.511192     5.070869    -4.222101
H    -1.360244     5.936663    -3.797185
H     0.669449     3.203794    -2.633913
O     0.678733     3.581729    -3.541905
H     0.726659     2.819295    -4.128608
H    -5.387813    -5.197977     1.790161
O    -4.690759    -5.792783     1.435631
H    -3.850585    -5.377681     1.708344
H     7.890862    -1.693344    -4.004867
O     7.631381    -1.381639    -3.105072
H     7.145542    -0.536978    -3.261320
H     3.710773    -5.069682    -5.276040
O     4.472605    -4.697924    -4.792623
H     4.855523    -5.410414    -4.247760
H    -3.791852     0.007036     4.943432
O    -4.391988     0.469776     5.577533
H    -5.054258    -0.187763     5.865777
H     3.464245    -5.948805    -0.508279
O     4.338430    -5.701815    -0.822199
H     4.414513    -4.739632    -0.677695
H     5.010979    -0.336360    -4.135082
O     4.476249    -1.047046    -4.527066
H     4.148148    -1.631110    -3.810856
H    -1.161022     1.575479    -3.919468
O    -1.810676     2.196691    -4.305334
H    -1.451238     2.530220    -5.150101
H     4.888323    -6.326158    -2.300729
O     5.222420    -6.649787    -3.166333
H     6.039871    -7.131473    -2.979250
H     8.745333    -5.097378    -2.894155
O     8.053008    -5.515773    -2.337482
H     8.087008    -6.472875    -2.441828
H     2.342075     4.712241     0.480473
O     1.761105     4.692721     1.250118
H     1.403441     3.773340     1.325938
H    -4.423239    -2.643749     4.234236
O    -5.316512    -2.303027     4.031268
H    -5.178111    -1.521139     3.456950
H    -5.848435    -3.198816     1.316645
O    -6.312472    -3.756992     1.983278
H    -6.125882    -3.322840     2.834851
H     1.557708     3.340069     6.909723
O     1.003730     3.928089     6.375728
H     0.207035     4.085545     6.933589
H     4.997585    -2.181879     3.640351
O     5.012484    -1.465496     4.307616
H     4.199161    -0.911466     4.142637
H     2.379305    -5.593679     4.848450
O     2.760220    -6.476708     4.588629
H     2.015570    -7.057579     4.410520
H     2.269465    -4.510384    -6.777828
O     2.098699    -4.999977    -5.963250
H     1.832958    -4.309658    -5.307280
H     6.440855    -4.111611    -0.482452
O     7.192702    -4.515822    -0.017861
H     7.701318    -4.937654    -0.738353
H    -1.730308     4.474469     7.723281
O    -0.831868     4.568962     8.110477
H    -0.647326     5.528314     8.136304
H    -5.101991     5.702762    -5.578766
O    -4.495030     4.938754    -5.599650
H    -3.736437     5.153885    -6.163574
H     3.297944    -2.519573    -8.418838
O     3.208608    -3.053538    -7.618554
H     4.084466    -3.030400    -7.188152
H    -0.647199     8.827033    -2.246670
O    -0.524980     9.654484    -1.726303
H     0.235793     9.478431    -1.147776
H     2.054259    -0.928307     5.226986
O     1.486661    -1.458133     5.816698
H     1.572143    -1.110951     6.713578
H     5.217548    -2.022535    -5.670490
O     5.564389    -2.788185    -6.192990
H     5.288873    -3.578822    -5.677476
H     5.685253    -5.231604     4.704250
O     5.160800    -5.146277     5.529825
H     4.440479    -5.779460     5.442263
H    -3.984368     1.131186     7.018865
O    -3.792584     1.603846     7.864615
H    -4.668551     1.991404     8.123942
H    -1.841317     9.612748    -0.714933
O    -2.703141     9.485722    -0.243152
H    -3.312830     10.115811    -0.630672
H    -5.937614     4.694560    -2.924618
O    -6.845821     4.576299    -3.270449
H    -6.754532     3.875192    -3.948676
H     0.094595    -7.067470    -1.139499
O     0.557111    -7.504650    -0.391365
H    -0.123749    -7.700637     0.255388
H    -7.629128     3.795612    -1.964129
O    -7.892398     3.207379    -1.225691
H    -7.749126     2.299311    -1.566671
H     3.832243    -1.156395     7.130949
O     3.893070    -0.187478     7.194145
H     4.503503     0.069575     6.492872
H     2.266306     5.792422    -1.148484
O     3.201468     5.498353    -1.034167
H     3.378702     4.959937    -1.828132
H     6.548072    -5.940114     0.690266
O     6.178390    -6.676588     1.223109
H     5.273058    -6.399931     1.447197
H    -3.875693     4.714525     7.798992
O    -3.307684     4.251264     7.141546
H    -3.505110     3.308518     7.248370
H     5.759468    -7.954732     0.151281
O     5.472243    -8.640684    -0.487576
H     4.644098    -8.314066    -0.883126
H    -0.571436     2.027685     7.712782
O    -1.201721     1.957176     6.976689
H    -2.072386     1.820370     7.370463
H    -6.383187    -0.122907     1.067187
O    -6.701314    -0.205761     0.153554
H    -7.620542    -0.475009     0.169144
H    -5.371109    -3.063522    -0.587246
O    -5.119531    -2.362967     0.040604
H    -5.688585    -1.589171    -0.146546
H     4.319178     5.572937     0.354000
O     4.653434     5.666387     1.259696
H     3.961973     6.177583     1.716487
H    -9.039093    -1.738997    -2.256322
O    -8.492454    -1.539415    -1.468935
H    -8.621510    -2.277032    -0.832807
H    -5.510289     3.480226    -5.514767
O    -6.028694     2.768859    -5.102495
H    -5.363179     2.182496    -4.688435
H     3.192291    -0.885492    -5.634410
O     2.337082    -1.004539    -6.101699
H     2.423087    -1.852641    -6.576613
H     8.126793    -1.349685    -5.999541
O     8.133553    -2.214407    -5.544341
H     7.277644    -2.613385    -5.797508
H     7.634817     0.991416    -6.277718
O     7.446181     0.143704    -6.692350
H     6.464856     0.094617    -6.730779
H    -7.862983    -3.693351     0.925808
O    -8.540111    -3.584836     0.240455
H    -8.441295    -4.343184    -0.362480
H    -2.401326     8.731911     1.320966
O    -2.253990     8.141134     2.072788
H    -1.482298     7.588960     1.852256
H    -4.443288     6.428857     3.517038
O    -4.612534     6.855744     2.660814
H    -3.848512     7.441595     2.523092
H     3.411214     3.445399    -3.549120
O     3.258499     4.414498    -3.454967
H     2.293788     4.480333    -3.563308
H    -6.108733    -1.599682    -3.439383
O    -6.193443    -2.180347    -2.656590
H    -6.978110    -1.873349    -2.148844
H     6.560895     1.260956     4.623711
O     6.175219     1.881680     5.267362
H     6.328156     2.770133     4.847582
H     1.374938     1.726666    -5.800455
O     1.178671     1.129474    -5.047650
H     1.542176     0.266741    -5.318329
H    -2.499972     2.944253     10.502099
O    -2.285369     2.038004     10.225272
H    -2.885315     1.838796     9.494496
H     7.619136    -0.502095     3.117553
O     6.872420     0.075421     3.296845
H     6.179631    -0.527429     3.668537
H    -5.661649    -8.053584    -0.708616
O    -4.927875    -8.123798    -0.061080
H    -4.932258    -7.307420     0.462295
H    -5.167432    -0.111319    -4.707947
O    -5.784475    -0.822369    -4.950063
H    -6.621975    -0.379773    -5.148918
H     1.904963    -0.191596    -7.495244
O     1.705198     0.281591    -8.338773
H     2.282867    -0.122886    -8.991453
H     4.889820    -1.385581    -9.280866
O     3.965255    -1.155911    -9.564295
H     3.946810    -1.271641    -10.513634
H     7.556355    -2.588071     4.226581
O     7.702809    -2.620099     3.267179
H     7.212073    -3.411643     2.992344
H     6.713014    -5.908036     2.704008
O     6.774283    -5.234506     3.407126
H     7.649862    -5.321396     3.825139
H    -1.819220     8.938301     3.526904
O    -1.575256     9.241818     4.426448
H    -2.425376     9.373623     4.879266
H    -7.378073     1.577645    -5.244340
O    -7.953789     0.833432    -5.001538
H    -8.855386     1.233579    -4.926504
H     6.942266    -1.078145    -8.376886
O     6.360492    -1.798552    -8.642703
H     6.130851    -2.249542    -7.811870
H    -1.658597     6.250092    -6.997984
O    -2.057075     5.424401    -6.726550
H    -1.810569     5.292179    -5.762499
H    -0.010259     3.295333     9.043441
O     0.189232     2.375448     9.299583
H    -0.611195     2.110883     9.803551
H     6.760889    -2.784285    -2.680477
O     6.229756    -3.528817    -2.340917
H     6.697916    -4.339440    -2.588744
H    -4.069203    -3.065863    -4.939221
O    -4.221434    -2.951635    -5.904123
H    -4.768200    -2.158205    -5.960064
H     1.867289     2.112891     8.610838
O     2.569654     2.115763     7.941611
H     2.808844     1.176851     7.791432
H    -6.907377    -5.198369    -1.399913
O    -7.822601    -5.467070    -1.647531
H    -7.954426    -5.062863    -2.530033
H    -3.830797     5.246149     5.716578
O    -3.796754     6.015121     5.126925
H    -2.862421     6.309344     5.222943
H    -7.879988     0.092858    -1.963364
O    -7.388779     0.816663    -2.374769
H    -7.615458     0.807608    -3.328430
H     5.839131     0.120503     0.440535
O     5.616354     0.840243     1.063239
H     6.124954     0.644921     1.876444
H    -6.223290     3.300007     7.408640
O    -6.096870     2.779461     8.236224
H    -6.698550     2.019552     8.145616
H     2.275301    -8.078337    -0.835261
O     2.954252    -8.065103    -1.529570
H     2.730122    -8.777742    -2.144684
H    -2.734719    -3.953479    -6.191678
O    -1.981951    -4.520715    -5.959402
H    -1.707005    -4.230608    -5.061380
H    -5.648969     3.753445     5.322802
O    -6.298014     4.148972     5.940708
H    -6.134656     5.093090     5.928119
H    -1.016085    -7.112653    -3.159523
O    -0.543904    -6.444304    -2.629214
H     0.364022    -6.374587    -3.008918
H     4.475119     2.078351     5.024169
O     3.506745     2.239586     4.941368
H     3.159671     2.241899     5.839905
H     4.451140     5.083116     6.140973
O     4.336303     5.770936     5.458431
H     3.756597     5.366264     4.771757
H     2.752925     3.679511     3.847000
O     2.584608     4.625777     3.705032
H     2.406718     4.724993     2.741801
H     9.396884     0.202688    -1.036377
O     8.590694     0.364644    -0.542753
H     8.413311    -0.455946    -0.053225
H    -2.112680     5.301660     10.673218
O    -2.834875     4.672209     10.902749
H    -3.056792     4.850913     11.816785
H     7.971963    -3.019908     0.354254
O     8.393005    -2.173907     0.611942
H     8.325711    -2.170505     1.574044
H     5.458052     3.890751     3.367209
O     6.186934     4.191561     3.938117
H     5.777287     4.923471     4.438618
H    -4.220262     5.006785     9.803545
O    -4.852000     5.158861     9.080645
H    -5.464690     4.410986     9.076198
H    -7.005644    -3.471057    -3.486488
O    -7.625679    -4.082014    -3.936790
H    -7.103740    -4.523182    -4.638876
H     0.017055     6.111841     10.797710
O    -0.848513     6.439487     10.548756
H    -0.730386     6.873163     9.684217
H     2.598959     1.496262    -4.081005
O     3.477561     1.847281    -3.840644
H     3.795679     1.331784    -3.069755
H    -6.984698    -0.228091     7.224090
O    -7.492707     0.550502     7.505056
H    -8.114535     0.736010     6.800300
H    -2.746866    -9.874061    -0.833657
O    -2.682539    -8.932158    -0.991502
H    -3.588753    -8.565420    -0.752178
H    -10.056356     3.087763    -4.893487
O    -10.174627     2.169961    -4.614336
H    -10.391853     2.252857    -3.664815
H    -2.077563    -3.034064     4.622348
O    -2.952430    -3.474155     4.690520
H    -2.945863    -4.090143     3.932658
H    -0.186774    -7.990383     2.489723
O     0.639072    -7.781104     2.939222
H     1.357968    -8.076838     2.353068
H     6.689908    -2.399551     6.422860
O     7.142270    -3.104396     5.955127
H     6.514847    -3.841241     5.911623
H    -5.284945    -2.013752     6.948574
O    -5.960019    -1.514532     6.464252
H    -5.942590    -1.889847     5.554361
H     0.852427     3.039787    -7.090834
O     1.769817     2.708086    -7.145941
H     1.756365     1.961755    -7.773133
H    -3.957159     8.745788     6.697634
O    -3.958603     8.744867     5.740257
H    -4.080553     7.817267     5.471374
H    -2.046395     10.316380    -2.706347
O    -2.947169     10.498859    -3.010380
H    -2.873227     11.134293    -3.721721
H     9.403081    -4.078689     4.071013
O     9.120793    -4.756835     4.692386
H     8.691796    -4.284832     5.416880
H    -0.727191    -5.991250    -5.834110
O    -0.024674    -6.558667    -5.500085
H     0.811507    -6.097509    -5.715953
H     1.831934     8.269721     0.699086
O     1.529125     8.591804    -0.179360
H     2.344856     8.631502    -0.707853
H     3.513706     2.934021    -6.634319
O     4.340343     2.641948    -6.224392
H     4.093476     2.367696    -5.316148
H     3.741459     7.121153    -1.195530
O     3.948024     8.056589    -1.408679
H     4.319071     8.001066    -2.301140
H     4.410467    -0.001913    -7.886844
O     4.786226     0.142525    -7.016547
H     4.604762     1.074284    -6.771796
H     6.033751     1.926531    -0.444953
O     6.601022     2.118859    -1.205247
H     7.424978     1.638807    -1.009985
H     6.682856    -8.437772    -1.591145
O     7.320227    -8.226158    -2.326082
H     7.686975    -9.060051    -2.614954
H    -5.294666    -5.779275    -5.408679
O    -5.910840    -5.106337    -5.723355
H    -5.358774    -4.338146    -5.958060
H     0.685531     7.156140     7.629771
O    -0.217021     7.179931     7.987883
H    -0.771892     7.201564     7.170218
H    -8.891074    -2.823767    -4.104800
O    -9.411184    -2.015173    -3.936750
H    -9.123721    -1.349425    -4.565333
H    -2.408981    -5.986760    -2.140100
O    -3.286544    -5.699451    -2.409470
H    -3.472635    -6.072320    -3.296252
H    -2.980124    -5.892447    -5.406731
O    -3.581048    -6.502579    -4.936230
H    -3.100028    -7.323530    -4.770429
H    -1.374182     3.735721    -6.961713
O    -0.835024     2.978868    -6.691512
H    -1.072019     2.194966    -7.243011
H    -0.188287     0.427100    -8.198374
O    -1.084686     0.662366    -7.916173
H    -1.261478     0.137894    -7.119191
H    -10.413928     4.062262    -2.728065
O    -10.482835     3.282691    -2.161343
H    -9.654246     3.254967    -1.651224
H     4.575630     4.075072     1.737969
O     4.370955     3.153737     2.022579
H     5.088257     2.577509     1.745975
H     6.495313     1.396096    -4.189085
O     6.191135     0.770945    -3.496355
H     6.220467     1.265637    -2.652072
H     9.634489    -2.235470    -0.898964
O     9.912729    -2.019738    -1.797862
H     9.113363    -1.679879    -2.242281
H     9.973940    -3.327128    -3.069345
O     9.707256    -3.978089    -3.745429
H     9.315381    -3.469190    -4.465803
H    -7.700549    -8.569482    -1.675980
O    -6.962011    -7.975443    -1.801689
H    -7.339100    -7.062160    -1.791239
H     4.172726     6.080204    -3.787404
O     4.834379     6.780782    -3.701827
H     5.669927     6.326497    -3.561673
H     0.102517    -8.165753    -5.211017
O     0.125617    -9.148866    -5.080454
H     0.277050    -9.511532    -5.953313
H    -2.332830    -8.671031    -2.716405
O    -2.097087    -8.405816    -3.625027
H    -1.450488    -9.024281    -3.983821
H     2.183573    -10.816045    -3.491729
O     2.137930    -9.861527    -3.465625
H     1.353777    -9.589348    -3.993058
H     6.847400     3.328809    -4.540549
O     6.906170     2.651288    -5.242103
H     6.113908     2.786256    -5.784140
H    -3.580863    -3.735465     7.725840
O    -3.690046    -2.945653     7.197716
H    -3.439598    -3.183977     6.278956
H    -0.627380    -3.354464    -6.713651
O     0.003695    -2.623752    -6.718587
H    -0.477985    -1.848239    -6.376865
H     0.615594     0.439486     8.778449
O     0.636088    -0.268278     8.130639
H    -0.284188    -0.562884     8.036760
H    -5.820284     7.376423    -4.232218
O    -6.322820     6.758763    -4.795015
H    -6.611229     6.027246    -4.205322
H    -4.265699     9.108715    -3.238734
O    -4.802037     8.312694    -3.134636
H    -4.395138     7.831991    -2.395603
H    -9.698303     5.808872    -4.635541
O    -10.232492     5.004241    -4.474341
H    -11.112438     5.206388    -4.794152
H     2.760458     6.624907     6.138040
O     1.795925     6.661777     6.258135
H     1.520209     5.731186     6.145476
H     4.811753     8.539412     0.121911
O     5.128260     8.540359     1.042792
H     5.532647     7.675525     1.177131
H     4.146740    -7.425601    -4.330030
O     3.389279    -7.708972    -4.873870
H     3.107895    -8.550412    -4.499652
H     0.381454     8.649381     4.270452
O     1.052252     8.000118     4.037157
H     1.289152     7.510619     4.852671
H     5.244854     4.189851    -3.125094
O     6.206216     4.157639    -3.071684
H     6.413425     3.576366    -2.323372
H    -2.588948    -1.557564     7.584077
O    -2.076952    -0.766482     7.808470
H    -2.703655    -0.138723     8.179098
H    -9.013995     7.947614    -4.131545
O    -8.949985     7.363922    -4.888953
H    -7.992736     7.199632    -5.022840
H     3.523443    -8.987706     1.098987
O     2.847294    -8.355783     1.348921
H     3.322324    -7.551206     1.629778
H     3.588825     8.162680     1.868804
O     2.795307     7.602446     1.973065
H     2.353263     7.830402     2.803974
N     4.841507     3.803800     7.496417
H     5.501057     3.170419     7.191786
H     4.127066     3.253430     7.860665
