30
Coordinates from ORCA-job grain_mol_opt.QMRegion
  H   0.13102808315202      5.66572339854440     -0.76506776353588
  O   0.66306364736381      6.36516629539036     -1.22010511343789
  H   0.71637696608593      7.16124458401516     -0.63692461083098
  H   -0.76258163607594      8.79520951757036     -2.32747251306771
  O   -0.65483474131910      9.66964584530098     -1.87763984457731
  H   -0.01307485699007      9.51285149641278     -1.16591988781624
  H   2.24092072397668      5.92167724094304     -1.18419410575188
  O   3.18106455332407      5.59817830431677     -1.12769163298240
  H   3.27765163559365      5.02462417766508     -1.91584890913883
  H   4.29637300267385      5.58113811271809      0.35899043872867
  O   4.65456087599325      5.65965765396853      1.26199928464031
  H   3.91642556834385      6.08183651839219      1.74055844082080
  H   1.52476287208457      8.34469721428788      0.86464399180258
  O   1.16107741267267      8.69967847303949      0.03078415942613
  H   1.93490516316805      9.17285344368401     -0.36619202425346
  H   4.11378156033847      7.04373117139732     -1.49371522625391
  O   4.64511988310510      7.84063991361170     -1.72462897347522
  H   4.95168568645469      7.62012068025985     -2.62658990447735
  H   4.35023239776568      5.97805122321972     -4.14129710383364
  O   5.13174532782652      6.55240884369884     -4.17226832354402
  H   5.85053843474283      5.95175530913392     -3.92700222226266
  H   5.28412432453493      8.32350069401445      0.08631815019893
  O   5.33384172723839      8.45072189144816      1.04966038376854
  H   5.55660205464963      7.55237111989026      1.34130261129729
  H   3.55228481017219      8.19540067451672      1.90795596439928
  O   2.78535088390246      7.60934253080309      2.04472296981373
  H   2.34357506331605      7.86106811738838      2.87603903988587
  O   3.21010969525649     10.04838559797169     -1.09222999424646
  H   3.76525063368030     10.40671430644514     -0.39208605297238
  H   3.73667677704348      9.29514187504658     -1.45132616138204
