603

H     0.213242     3.023602    -0.689970
O     0.735302     2.353851    -1.182084
H     1.674243     2.482160    -0.909463
H    -0.066523    -1.308917     3.145873
O     0.326531    -0.609814     2.600797
H    -0.150542     0.204429     2.832758
H    -2.386631     2.406462    -0.545045
O    -2.175867     1.936640     0.279363
H    -2.194175     0.988484     0.055556
H    -4.651616     0.549670     2.176785
O    -4.969702    -0.383328     2.191626
H    -4.466390    -0.862449     1.525130
H     0.073539    -0.313783     0.945389
O    -0.123709    -0.078338     0.018184
H     0.215727     0.818043    -0.103750
H    -0.147452    -3.578250     3.776279
O    -0.424832    -2.747095     4.195690
H     0.221806    -2.576539     4.896990
H    -4.873278     2.532289     1.322351
O    -4.233807     2.122874     1.937242
H    -3.391577     2.103334     1.423691
H    -3.235801     3.892751    -2.222500
O    -2.498668     3.295385    -1.991026
H    -2.141355     3.005588    -2.850621
H    -0.120467    -3.810435     0.501895
O     0.220962    -2.992871     0.918493
H    -0.565661    -2.504892     1.229826
H    -2.369301    -1.538539     2.466035
O    -2.181003    -2.005979     1.625798
H    -2.439336    -1.419857     0.895423
H     2.079048    -1.454607    -1.127481
O     2.311501    -1.706308    -0.209791
H     1.521951    -2.132290     0.175272
H    -1.378854     1.822352     1.902881
O    -1.469740     1.426061     2.779643
H    -1.454357     2.139333     3.443579
H     0.213021    -2.712444    -1.573499
O    -0.541890    -2.099969    -1.628108
H    -0.361072    -1.372782    -0.995648
H    -3.432067    -2.928105    -0.392236
O    -2.715315    -3.421839    -0.811923
H    -2.004814    -2.792286    -1.032265
H     2.782876     0.122345     2.924869
O     2.883128    -0.058958     3.886628
H     2.975279     0.834374     4.290097
H    -3.512503     6.377628    -0.557227
O    -3.273427     7.039059    -1.258274
H    -3.130531     7.884572    -0.789102
H     3.912022     0.573434     1.175280
O     2.961467     0.393086     1.292183
H     2.722562    -0.359852     0.714036
H    -5.772416     0.841610    -1.609766
O    -4.861497     1.167826    -1.484126
H    -4.971214     1.997126    -0.973757
H    -1.194877     5.395276     2.196286
O    -1.820603     4.648617     2.080941
H    -1.898731     4.231323     2.944085
H     3.505793     2.752090     0.412193
O     3.258857     2.708763    -0.527201
H     3.588249     1.864261    -0.876002
H     1.492509    -4.708581    -2.252663
O     1.558973    -3.930835    -1.680326
H     2.353265    -3.470863    -2.033542
H    -0.915014    -0.094072    -2.555140
O    -0.279631     0.556840    -2.879978
H    -0.018708     1.140061    -2.144076
H     1.701858    -4.694931    -0.181283
O     1.808705    -5.331120     0.562154
H     1.343717    -6.141970     0.267604
H    -1.223980    -3.274596    -2.882134
O    -1.051455    -3.959228    -3.541788
H    -0.926097    -4.805608    -3.071660
H    -2.764818     3.312325     4.694311
O    -1.783556     3.308493     4.659811
H    -1.490862     2.907328     5.496391
H     0.979548     5.032289     4.061246
O     0.033853     5.265869     4.113623
H    -0.439151     4.463685     4.372768
H    -1.727692    -4.655525    -0.371322
O    -0.963104    -5.196833    -0.085808
H    -1.311467    -5.882624     0.493219
H    -3.903020     5.827362    -2.611483
O    -4.255222     4.993221    -2.939529
H    -4.101238     4.956633    -3.907861
H    -2.425543    -3.690073     1.935272
O    -2.444878    -4.593655     2.312566
H    -1.505351    -4.832824     2.452680
H    -4.692667    -2.984210    -2.898893
O    -3.840818    -3.218602    -3.305318
H    -3.510591    -4.012150    -2.839432
H     0.352539     1.376214     4.605365
O     0.859834     2.135014     4.270523
H     0.909255     2.795082     4.976314
H    -4.654288    -5.172705    -1.568296
O    -5.355266    -4.817614    -0.994498
H    -5.141942    -5.171086    -0.110046
H     2.323921    -6.496063    -4.040167
O     1.988156    -6.166375    -3.186416
H     2.422302    -6.740223    -2.523196
H     0.468951    -3.390983    -4.009079
O     1.271921    -3.024892    -4.432337
H     0.952717    -2.655632    -5.282133
H     1.971881    -1.758304     2.975689
O     2.126283    -2.689568     2.759380
H     1.439501    -2.903417     2.093288
H    -3.011043    -1.815982    -3.212443
O    -2.587936    -0.929892    -3.148155
H    -3.242452    -0.283962    -3.469223
H    -3.174902     4.974781     1.067591
O    -3.956325     5.348801     0.613148
H    -4.370383     5.908026     1.318835
H     0.888934     2.249318     2.580175
O     0.989533     2.243508     1.608921
H     1.715195     1.618779     1.445046
H     0.205501     5.648909    -0.773787
O     0.728239     6.309380    -1.283432
H     0.870900     7.109904    -0.728933
H     0.362414     7.032634     2.573591
O    -0.000666     6.651625     1.756896
H     0.662123     5.979656     1.495986
H    -2.469241     0.216562     3.334985
O    -2.691631    -0.596492     3.841226
H    -1.930682    -0.636104     4.462385
H    -0.880817     0.556690     6.017817
O    -0.607873     0.035997     5.243833
H     0.104833    -0.568218     5.530847
H     0.713031    -4.999273     1.978990
O     0.171595    -5.106927     2.784265
H     0.314996    -6.027459     3.057323
H    -2.120450    -8.091489     0.453156
O    -1.796867    -7.603002     1.237585
H    -2.582488    -7.289930     1.693553
H    -0.363687     6.854635    -2.342017
O    -1.109821     7.275351    -2.840857
H    -1.899660     7.150326    -2.276703
H    -1.099298     4.305420     0.561080
O    -0.726813     4.364989    -0.335282
H    -1.434083     4.122804    -0.966990
H    -4.395145     2.751439     3.498906
O    -4.392649     2.923120     4.463284
H    -4.476924     2.040713     4.873591
H     2.030599    -3.586083     4.240179
O     1.967259    -4.057278     5.094017
H     2.474843    -3.520097     5.723751
H     4.692251    -3.206760     0.832752
O     4.531970    -3.131340    -0.133858
H     3.672994    -2.653941    -0.217478
H    -2.716486    -0.752949    -1.356263
O    -3.042691    -0.481397    -0.481775
H    -3.842770     0.045003    -0.688824
H    -1.612157    -0.771311    -4.636117
O    -1.105842    -0.557206    -5.440744
H    -0.394811     0.038808    -5.157634
H     1.798595    -1.728125    -3.383606
O     1.892662    -0.980860    -2.760976
H     1.115960    -0.402828    -2.892473
H     3.669016    -3.130374     2.544645
O     4.627720    -3.360917     2.470972
H     4.680801    -4.321045     2.598968
H     3.428675    -6.128704     3.121409
O     3.784127    -5.929256     2.220781
H     3.046520    -5.583877     1.677745
H    -3.336093     1.603458    -4.185256
O    -4.181684     1.134366    -3.993254
H    -4.398201     1.281533    -3.036680
H    -5.069008     4.148029     0.056912
O    -5.508780     3.282370    -0.044336
H    -6.439174     3.402239    -0.325987
H     6.740274    -1.202107    -1.372026
O     5.968193    -1.049355    -0.821090
H     5.547104    -1.915923    -0.621457
H     4.594980    -3.185999    -2.477178
O     3.728107    -3.012656    -2.893828
H     3.730421    -3.632070    -3.649800
H     4.444399    -2.299042     5.613931
O     4.101872    -2.762911     6.408156
H     4.435056    -3.668664     6.327244
H    -0.733763     6.339285     5.059612
O    -1.329168     6.916686     5.597425
H    -1.341965     7.793109     5.154643
H     4.704562    -0.153579    -1.476459
O     3.938993     0.390589    -1.740561
H     3.244380    -0.208828    -2.068904
H    -0.731162     4.512290    -4.050684
O    -1.513414     5.056082    -4.258283
H    -1.360303     5.923239    -3.837609
H     0.670055     3.192427    -2.670892
O     0.678468     3.568528    -3.579542
H     0.723065     2.804496    -4.164638
H    -5.381197    -5.190311     1.797808
O    -4.685602    -5.786631     1.443083
H    -3.844310    -5.371384     1.712306
H     7.883721    -1.721735    -4.039792
O     7.627733    -1.399552    -3.144409
H     7.142250    -0.555809    -3.305264
H     3.699909    -5.086443    -5.297282
O     4.462944    -4.713569    -4.816499
H     4.845105    -5.426017    -4.271376
H    -3.772672     0.023647     4.930027
O    -4.372040     0.489415     5.562714
H    -5.033061    -0.167300     5.855824
H     3.463809    -5.954992    -0.522171
O     4.337108    -5.709418    -0.839729
H     4.413994    -4.746882    -0.698430
H     5.004765    -0.352816    -4.167425
O     4.470507    -1.063532    -4.558665
H     4.142334    -1.647667    -3.842203
H    -1.165370     1.561335    -3.946163
O    -1.815220     2.182936    -4.331024
H    -1.458736     2.512083    -5.179066
H     4.882272    -6.338959    -2.318465
O     5.214891    -6.664536    -3.183839
H     6.031021    -7.148259    -2.996600
H     8.739386    -5.118124    -2.925683
O     8.047828    -5.532225    -2.365880
H     8.078921    -6.489977    -2.466241
H     2.352595     4.710157     0.435348
O     1.774520     4.694188     1.207386
H     1.415493     3.774615     1.286720
H    -4.408006    -2.629019     4.231008
O    -5.301681    -2.288468     4.029031
H    -5.164225    -1.508464     3.452092
H    -5.841734    -3.192419     1.318917
O    -6.304667    -3.747866     1.988528
H    -6.114980    -3.311386     2.838257
H     1.704225     3.469356     6.848856
O     1.081641     3.985008     6.314699
H     0.299285     4.140037     6.886671
H     5.008396    -2.178067     3.607583
O     5.030876    -1.458576     4.270325
H     4.219367    -0.901607     4.113947
H     2.394596    -5.580212     4.836669
O     2.773316    -6.464908     4.577684
H     2.027343    -7.045631     4.404877
H     2.253034    -4.537225    -6.793292
O     2.083965    -5.023339    -5.976092
H     1.820991    -4.330036    -5.322618
H     6.440909    -4.120803    -0.509355
O     7.195126    -4.522705    -0.046665
H     7.700349    -4.948179    -0.767184
H    -1.705311     4.496654     7.688596
O    -0.805942     4.594277     8.073012
H    -0.623891     5.553258     8.095869
H    -5.107764     5.686220    -5.608216
O    -4.501225     4.921918    -5.627314
H    -3.744171     5.134139    -6.194460
H     3.252874    -2.573519    -8.449633
O     3.182113    -3.078985    -7.632800
H     4.067603    -3.056518    -7.226707
H    -0.642473     8.818006    -2.298195
O    -0.517678     9.647270    -1.780921
H     0.244714     9.472646    -1.204454
H     2.076836    -0.914619     5.203835
O     1.504126    -1.439165     5.792494
H     1.598772    -1.092432     6.689081
H     5.144180    -2.079499    -5.683828
O     5.501727    -2.847973    -6.196953
H     5.200071    -3.633623    -5.677007
H     5.699380    -5.223182     4.681001
O     5.178308    -5.136319     5.508185
H     4.455712    -5.767324     5.424326
H    -3.959565     1.155261     7.001113
O    -3.766081     1.632137     7.844051
H    -4.641473     2.019299     8.105009
H    -1.831356     9.609845    -0.766003
O    -2.691410     9.485420    -0.290349
H    -3.302310     10.113658    -0.679075
H    -5.936964     4.687052    -2.948257
O    -6.846115     4.568633    -3.291395
H    -6.757104     3.865058    -3.967492
H     0.091734    -7.073192    -1.140988
O     0.555963    -7.508306    -0.392698
H    -0.123174    -7.701537     0.256683
H    -7.626514     3.792410    -1.980572
O    -7.887991     3.207005    -1.239276
H    -7.746541     2.297562    -1.577558
H     3.985187    -0.894753     6.977063
O     3.995278     0.069382     6.966569
H     4.807599     0.357441     6.533819
H     2.272469     5.784776    -1.197369
O     3.208032     5.491135    -1.084450
H     3.382229     4.949147    -1.876868
H     6.550087    -5.945184     0.667863
O     6.181141    -6.680112     1.203010
H     5.277044    -6.401569     1.430070
H    -3.848458     4.739650     7.769496
O    -3.282849     4.275097     7.110852
H    -3.477615     3.332117     7.222753
H     5.758707    -7.960651     0.136867
O     5.470017    -8.648107    -0.499818
H     4.640375    -8.322689    -0.893354
H    -0.541261     2.047450     7.683378
O    -1.175170     1.982658     6.948923
H    -2.043533     1.842795     7.346393
H    -6.375076    -0.117359     1.060651
O    -6.695926    -0.201896     0.148104
H    -7.615016    -0.471437     0.166983
H    -5.369341    -3.063815    -0.586616
O    -5.115794    -2.361027     0.037997
H    -5.684854    -1.587655    -0.150494
H     4.331852     5.565924     0.300500
O     4.667572     5.667342     1.204970
H     3.974409     6.179066     1.657723
H    -9.041135    -1.742036    -2.250298
O    -8.492494    -1.540039    -1.464915
H    -8.620053    -2.275711    -0.826181
H    -5.517482     3.463890    -5.535691
O    -6.035378     2.754781    -5.118982
H    -5.369072     2.168937    -4.705298
H     3.187317    -0.909175    -5.658939
O     2.333009    -1.020560    -6.128343
H     2.412468    -1.869834    -6.602902
H     8.104747    -1.367668    -5.917426
O     8.173006    -2.283678    -5.589570
H     7.287837    -2.651873    -5.779146
H     7.574895     1.140768    -6.140395
O     7.482973     0.261659    -6.539059
H     6.507394     0.180321    -6.714265
H    -7.857746    -3.686732     0.934912
O    -8.536715    -3.580000     0.251072
H    -8.439937    -4.340381    -0.349666
H    -2.387473     8.735942     1.274253
O    -2.236535     8.148498     2.028136
H    -1.467463     7.593936     1.805271
H    -4.425070     6.440988     3.483506
O    -4.595539     6.865867     2.626507
H    -3.831515     7.450602     2.485222
H     3.409724     3.427969    -3.595128
O     3.259631     4.397974    -3.501421
H     2.294648     4.464701    -3.608078
H    -6.113879    -1.608688    -3.441687
O    -6.196945    -2.186483    -2.656601
H    -6.980080    -1.877332    -2.147909
H     6.480560     1.041528     4.724755
O     6.088130     1.581879     5.427317
H     6.276534     2.499948     5.134543
H     1.365973     1.705245    -5.834147
O     1.172630     1.111278    -5.077582
H     1.534362     0.247320    -5.347901
H    -2.469290     2.976758     10.474193
O    -2.258477     2.068458     10.202132
H    -2.857082     1.868438     9.470580
H     7.636212    -0.511480     3.070627
O     6.887356     0.066138     3.237991
H     6.194239    -0.532020     3.619638
H    -5.663919    -8.053773    -0.690817
O    -4.928604    -8.122497    -0.044921
H    -4.930759    -7.304309     0.475640
H    -5.174879    -0.124974    -4.717934
O    -5.793310    -0.836328    -4.955456
H    -6.630935    -0.393860    -5.153914
H     1.883397    -0.212785    -7.526028
O     1.677972     0.255108    -8.369281
H     2.279869    -0.135032    -9.010827
H     4.809800    -1.607544    -9.399254
O     3.951956    -1.102371    -9.536047
H     3.898682    -0.923658    -10.476802
H     7.571293    -2.581383     4.189140
O     7.717388    -2.619306     3.229582
H     7.222510    -3.409957     2.959753
H     6.721802    -5.906921     2.680539
O     6.785528    -5.230288     3.380138
H     7.661457    -5.316415     3.797583
H    -1.798698     8.949572     3.477311
O    -1.549747     9.255300     4.374978
H    -2.397955     9.389683     4.830995
H    -7.385888     1.563784    -5.253770
O    -7.961462     0.820844    -5.006814
H    -8.862612     1.221683    -4.930860
H     6.893445    -1.790088    -9.050242
O     6.146123    -2.423715    -8.986213
H     6.062228    -2.611589    -8.035329
H    -1.667104     6.226497    -7.038270
O    -2.067208     5.403006    -6.762640
H    -1.817223     5.272477    -5.799544
H     0.019949     3.319031     9.010864
O     0.216100     2.399467     9.267409
H    -0.582230     2.137158     9.774851
H     6.755930    -2.802428    -2.712765
O     6.225514    -3.544969    -2.369640
H     6.690754    -4.357269    -2.617374
H    -4.079557    -3.080995    -4.942254
O    -4.234670    -2.969946    -5.907042
H    -4.780629    -2.176107    -5.964307
H     1.997178     2.188278     8.452945
O     2.660655     2.298576     7.762156
H     3.081414     1.427499     7.647851
H    -6.909467    -5.200105    -1.388261
O    -7.825640    -5.468787    -1.632501
H    -7.959448    -5.067494    -2.516037
H    -3.808311     5.264724     5.685133
O    -3.775015     6.032177     5.093097
H    -2.840593     6.325455     5.185894
H    -7.879911     0.089998    -1.966511
O    -7.389582     0.812367    -2.381529
H    -7.618572     0.800082    -3.334618
H     5.844655     0.115710     0.399630
O     5.625563     0.839790     1.018474
H     6.135185     0.644892     1.831923
H    -6.197322     3.326041     7.389518
O    -6.069440     2.808969     8.218898
H    -6.670824     2.048320     8.132332
H     2.272351    -8.084424    -0.839578
O     2.949606    -8.074358    -1.535620
H     2.722818    -8.788535    -2.147974
H    -2.749107    -3.973739    -6.195589
O    -1.996784    -4.541340    -5.962979
H    -1.718506    -4.247956    -5.067090
H    -5.627145     3.772237     5.301272
O    -6.274962     4.170686     5.918600
H    -6.110355     5.114518     5.903200
H    -1.024462    -7.124009    -3.157766
O    -0.550377    -6.454422    -2.630758
H     0.356471    -6.386413    -3.013446
H     4.458523     2.012393     5.115337
O     3.517259     2.253057     4.995441
H     3.133493     2.271174     5.877535
H     4.127928     4.655593     6.283391
O     4.210115     5.384256     5.663733
H     3.640979     5.143629     4.893965
H     2.779702     3.614007     3.907899
O     2.603890     4.554165     3.740463
H     2.483158     4.651229     2.774036
H     9.401453     0.188801    -1.084803
O     8.593942     0.353700    -0.594544
H     8.417100    -0.462860    -0.097856
H    -2.077469     5.335639     10.637335
O    -2.800015     4.708371     10.870451
H    -3.017495     4.887669     11.785433
H     7.975875    -3.026257     0.317759
O     8.399288    -2.179863     0.570588
H     8.333809    -2.172972     1.532966
H     5.385462     3.657100     3.507930
O     6.043176     3.922858     4.172569
H     5.631701     4.641723     4.674214
H    -4.186804     5.039118     9.773849
O    -4.820337     5.189763     9.052163
H    -5.433210     4.441960     9.051456
H    -7.012262    -3.479551    -3.480169
O    -7.634069    -4.091352    -3.926822
H    -7.114249    -4.535295    -4.628818
H     0.052268     6.141299     10.754199
O    -0.812088     6.473557     10.507296
H    -0.696617     6.902372     9.640069
H     2.593976     1.480669    -4.118612
O     3.474035     1.830494    -3.880106
H     3.791046     1.316578    -3.107668
H    -6.959824    -0.201934     7.219583
O    -7.467058     0.577749     7.499117
H    -8.090607     0.760854     6.795259
H    -2.750864    -9.876765    -0.817891
O    -2.686338    -8.935445    -0.979065
H    -3.591547    -8.567241    -0.738452
H    -10.062226     3.076882    -4.900537
O    -10.180512     2.160086    -4.618159
H    -10.395058     2.246011    -3.668330
H    -2.061235    -3.019321     4.614141
O    -2.936627    -3.458154     4.685505
H    -2.932184    -4.077109     3.930108
H    -0.180527    -7.983957     2.491962
O     0.646623    -7.774092     2.938745
H     1.363829    -8.071964     2.351633
H     6.715461    -2.380683     6.383157
O     7.163330    -3.091819     5.920160
H     6.532222    -3.825809     5.883943
H    -5.262151    -1.989382     6.945181
O    -5.938251    -1.491164     6.461114
H    -5.923403    -1.869660     5.552501
H     0.841648     3.012783    -7.128901
O     1.758243     2.679845    -7.183199
H     1.743175     1.929589    -7.807463
H    -3.929957     8.768373     6.655118
O    -3.928601     8.764638     5.697756
H    -4.055574     7.836861     5.431651
H    -2.040781     10.307039    -2.759589
O    -2.942612     10.489593    -3.060267
H    -2.871021     11.121629    -3.774889
H     9.415210    -4.073723     4.035587
O     9.135642    -4.750646     4.659530
H     8.706949    -4.276839     5.383218
H    -0.741739    -6.012036    -5.836868
O    -0.038761    -6.578320    -5.501954
H     0.797197    -6.118658    -5.722441
H     1.844573     8.268266     0.642190
O     1.540952     8.589188    -0.235545
H     2.355029     8.625105    -0.767016
H     3.509532     2.891675    -6.686461
O     4.333027     2.587299    -6.279535
H     4.083613     2.321339    -5.369905
H     3.748676     7.111935    -1.252555
O     3.956153     8.046966    -1.467514
H     4.323354     7.989263    -2.361495
H     4.555800    -0.002854    -7.972778
O     4.846873     0.124985    -7.054252
H     4.609635     1.051488    -6.830658
H     6.039118     1.918089    -0.491420
O     6.605017     2.109021    -1.253511
H     7.428633     1.628160    -1.058333
H     6.677479    -8.449419    -1.605951
O     7.313951    -8.240937    -2.342841
H     7.676807    -9.076624    -2.631450
H    -5.308257    -5.795111    -5.399436
O    -5.924976    -5.122730    -5.714300
H    -5.372971    -4.355814    -5.953346
H     0.706486     7.180279     7.581727
O    -0.194634     7.209736     7.942102
H    -0.750961     7.223768     7.125145
H    -8.898894    -2.833023    -4.095413
O    -9.418018    -2.023457    -3.928780
H    -9.131688    -1.360145    -4.560443
H    -2.413871    -5.993821    -2.138203
O    -3.292014    -5.706814    -2.406069
H    -3.480627    -6.082397    -3.291231
H    -2.994100    -5.909652    -5.403271
O    -3.594135    -6.517954    -4.929092
H    -3.113104    -7.338692    -4.762293
H    -1.386417     3.710332    -6.995475
O    -0.847056     2.955115    -6.721894
H    -1.083198     2.168723    -7.271046
H    -0.205257     0.400283    -8.224710
O    -1.100642     0.637060    -7.939231
H    -1.274699     0.113613    -7.141178
H    -10.413164     4.058626    -2.737646
O    -10.481244     3.281225    -2.167853
H    -9.651174     3.254318    -1.660140
H     4.594075     4.071473     1.702621
O     4.385101     3.151160     1.982877
H     5.099931     2.573928     1.701818
H     6.483881     1.388272    -4.228453
O     6.191587     0.758846    -3.537552
H     6.220539     1.250452    -2.691122
H     9.636796    -2.248222    -0.942035
O     9.912032    -2.034973    -1.842642
H     9.110986    -1.695018    -2.283629
H     9.967874    -3.346165    -3.108074
O     9.702985    -3.998933    -3.783267
H     9.303694    -3.494093    -4.502133
H    -7.705969    -8.571413    -1.651010
O    -6.967334    -7.978364    -1.780718
H    -7.343638    -7.064763    -1.772272
H     4.171486     6.063216    -3.842538
O     4.833666     6.763737    -3.759970
H     5.669573     6.309755    -3.621318
H     0.087907    -8.184367    -5.209050
O     0.110378    -9.167192    -5.075440
H     0.259398    -9.532551    -5.947604
H    -2.340804    -8.680244    -2.705921
O    -2.107790    -8.418103    -3.616099
H    -1.462331    -9.037802    -3.974877
H     2.170957    -10.830911    -3.487287
O     2.126101    -9.876313    -3.463430
H     1.341188    -9.604833    -3.990188
H     6.820689     3.334388    -4.579708
O     6.878815     2.666963    -5.292263
H     6.074980     2.793687    -5.821537
H    -3.555677    -3.709520     7.723880
O    -3.669163    -2.922354     7.192712
H    -3.419295    -3.163275     6.274488
H    -0.642094    -3.377763    -6.725738
O    -0.010135    -2.647916    -6.732182
H    -0.491054    -1.870399    -6.394322
H     0.657336     0.469917     8.744415
O     0.663307    -0.246139     8.105231
H    -0.259455    -0.533800     8.018927
H    -5.821608     7.364609    -4.264752
O    -6.326105     6.745655    -4.824216
H    -6.613189     6.015891    -4.231634
H    -4.262564     9.099297    -3.281244
O    -4.799382     8.304211    -3.172833
H    -4.390651     7.825162    -2.433815
H    -9.701559     5.798566    -4.652674
O    -10.235917     4.994969    -4.487084
H    -11.116429     5.196344    -4.805825
H     2.790475     6.517190     6.119629
O     1.830649     6.615156     6.218378
H     1.485624     5.702127     6.117944
H     4.822165     8.535671     0.058029
O     5.141169     8.537802     0.978393
H     5.546232     7.672830     1.110568
H     4.134877    -7.444034    -4.341969
O     3.375341    -7.729161    -4.881875
H     3.094960    -8.569280    -4.504057
H     0.399814     8.661503     4.212278
O     1.076755     8.015841     3.984735
H     1.303106     7.523944     4.800000
H     5.243666     4.175932    -3.173037
O     6.205260     4.145600    -3.118951
H     6.413976     3.562564    -2.372103
H    -2.565945    -1.533107     7.571618
O    -2.054310    -0.740209     7.789875
H    -2.678942    -0.112457     8.163524
H    -9.014343     7.938424    -4.157490
O    -8.952830     7.352393    -4.913288
H    -7.996093     7.186732    -5.049168
H     3.525313    -8.988536     1.094661
O     2.849957    -8.355525     1.343880
H     3.325920    -7.550290     1.621619
H     3.604080     8.165374     1.805548
O     2.813348     7.602631     1.919484
H     2.367740     7.840492     2.745359
N     8.226156    -0.604890    -9.032447
H     8.077757    -0.130066    -8.184663
H     9.070674    -1.050898    -8.917512
