603

H     0.212960     3.031176    -0.669746
O     0.736722     2.362749    -1.161646
H     1.675125     2.491302    -0.885254
H    -0.073432    -1.305718     3.160487
O     0.319815    -0.606017     2.616470
H    -0.157743     0.207920     2.848362
H    -2.386881     2.410665    -0.533711
O    -2.178826     1.940235     0.290982
H    -2.193406     0.992396     0.066022
H    -4.657966     0.547548     2.178796
O    -4.975107    -0.385896     2.191121
H    -4.468261    -0.863479     1.526207
H     0.072483    -0.307800     0.960714
O    -0.123457    -0.071494     0.033407
H     0.216968     0.824864    -0.086790
H    -0.152649    -3.575798     3.787692
O    -0.433104    -2.745953     4.207531
H     0.211508    -2.574548     4.910534
H    -4.879566     2.530826     1.325936
O    -4.241800     2.121283     1.942433
H    -3.397642     2.103665     1.431851
H    -3.233210     3.897643    -2.212151
O    -2.496414     3.300532    -1.979235
H    -2.135183     3.013028    -2.837847
H    -0.115866    -3.804196     0.512830
O     0.223143    -2.986984     0.931754
H    -0.564839    -2.500077     1.241279
H    -2.373347    -1.537727     2.472801
O    -2.182611    -2.004291     1.632559
H    -2.438585    -1.417170     0.902177
H     2.086564    -1.442886    -1.106394
O     2.316141    -1.697188    -0.188906
H     1.525526    -2.123333     0.193362
H    -1.385010     1.825104     1.916889
O    -1.480041     1.427546     2.792626
H    -1.466502     2.139913     3.457562
H     0.223258    -2.702932    -1.559714
O    -0.532625    -2.091867    -1.616330
H    -0.354763    -1.364836    -0.982571
H    -3.425060    -2.925418    -0.390418
O    -2.706738    -3.417664    -0.809225
H    -1.996088    -2.786898    -1.025826
H     2.776456     0.129655     2.949114
O     2.871790    -0.053070     3.911519
H     2.962584     0.839960     4.315963
H    -3.518583     6.380253    -0.544536
O    -3.278861     7.042831    -1.244278
H    -3.137855     7.887905    -0.773698
H     3.909350     0.584399     1.206010
O     2.957574     0.402400     1.319414
H     2.723021    -0.349198     0.738546
H    -5.767196     0.842506    -1.610756
O    -4.857100     1.169820    -1.482340
H    -4.969265     1.998424    -0.971291
H    -1.207882     5.397862     2.214639
O    -1.832801     4.650775     2.096859
H    -1.912205     4.232092     2.959206
H     3.502892     2.763408     0.442532
O     3.254435     2.720074    -0.496493
H     3.591199     1.879183    -0.847167
H     1.507315    -4.696927    -2.237521
O     1.570369    -3.920023    -1.663895
H     2.365552    -3.458221    -2.012714
H    -0.905107    -0.084789    -2.541316
O    -0.270286     0.567399    -2.864520
H    -0.011144     1.150210    -2.127340
H     1.710401    -4.684930    -0.165085
O     1.815930    -5.322398     0.577477
H     1.352598    -6.133182     0.280536
H    -1.208610    -3.265498    -2.873900
O    -1.033765    -3.949356    -3.533891
H    -0.908653    -4.795955    -3.064095
H    -2.783009     3.309776     4.705649
O    -1.801742     3.307283     4.674148
H    -1.510794     2.905577     5.511046
H     0.961057     5.035862     4.085866
O     0.014774     5.267997     4.136461
H    -0.457469     4.464510     4.392733
H    -1.718903    -4.650313    -0.366424
O    -0.954684    -5.191681    -0.079913
H    -1.303878    -5.877647     0.498377
H    -3.901656     5.831867    -2.600386
O    -4.251875     4.997922    -2.931163
H    -4.093975     4.962867    -3.898823
H    -2.425258    -3.688639     1.939398
O    -2.444486    -4.593016     2.314907
H    -1.505059    -4.830663     2.458264
H    -4.677972    -2.980103    -2.901480
O    -3.824764    -3.213287    -3.305793
H    -3.494667    -4.006345    -2.839039
H     0.337502     1.378046     4.624394
O     0.843647     2.138344     4.291599
H     0.891462     2.797294     4.998508
H    -4.640796    -5.170274    -1.573128
O    -5.344262    -4.817063    -1.001284
H    -5.133119    -5.170924    -0.116442
H     2.346855    -6.481953    -4.024355
O     2.008104    -6.153319    -3.171562
H     2.440713    -6.726886    -2.507059
H     0.486843    -3.379421    -3.995393
O     1.290873    -3.013533    -4.416960
H     0.973495    -2.640913    -5.265790
H     1.967761    -1.751780     2.995443
O     2.122746    -2.683059     2.779232
H     1.438650    -2.896254     2.110343
H    -2.997020    -1.809339    -3.208558
O    -2.575018    -0.922927    -3.142744
H    -3.229699    -0.277235    -3.463955
H    -3.183838     4.976053     1.079529
O    -3.964634     5.349208     0.623146
H    -4.381471     5.907180     1.328202
H     0.879678     2.254380     2.601237
O     0.982223     2.249101     1.630288
H     1.710584     1.626786     1.467929
H     0.201333     5.657295    -0.750236
O     0.723182     6.319489    -1.258349
H     0.864750     7.119069    -0.702155
H     0.345859     7.036876     2.599033
O    -0.014784     6.656064     1.781169
H     0.650132     5.985733     1.520990
H    -2.478606     0.216080     3.343400
O    -2.701663    -0.597953     3.847912
H    -1.942528    -0.637131     4.471428
H    -0.899109     0.555121     6.031605
O    -0.623615     0.035047     5.258133
H     0.089846    -0.567726     5.546418
H     0.715192    -4.993223     1.991544
O     0.170986    -5.103144     2.794608
H     0.315175    -6.023619     3.067248
H    -2.109593    -8.087829     0.452932
O    -1.788982    -7.600230     1.239055
H    -2.576305    -7.288306     1.692886
H    -0.364799     6.864012    -2.319063
O    -1.110318     7.283731    -2.820247
H    -1.901400     7.157228    -2.258312
H    -1.105715     4.309953     0.579079
O    -0.730895     4.371191    -0.316167
H    -1.435755     4.128849    -0.950212
H    -4.408644     2.748050     3.504238
O    -4.409976     2.918540     4.468832
H    -4.493840     2.035490     4.877761
H     2.023722    -3.580986     4.258315
O     1.958682    -4.053748     5.111229
H     2.463551    -3.516381     5.743139
H     4.695149    -3.194228     0.859583
O     4.537029    -3.121486    -0.107529
H     3.679492    -2.641718    -0.193403
H    -2.709531    -0.748151    -1.349882
O    -3.039453    -0.478686    -0.476264
H    -3.839088     0.047616    -0.685136
H    -1.595370    -0.760861    -4.626746
O    -1.086346    -0.545678    -5.429543
H    -0.377533     0.051523    -5.142941
H     1.812373    -1.715216    -3.364502
O     1.902986    -0.968924    -2.740817
H     1.126515    -0.391062    -2.873861
H     3.667117    -3.120831     2.568404
O     4.626112    -3.351188     2.497508
H     4.679310    -4.311198     2.625090
H     3.428309    -6.120705     3.141092
O     3.786284    -5.920964     2.241436
H     3.050449    -5.574338     1.696763
H    -3.324051     1.610496    -4.177782
O    -4.169625     1.140030    -3.989112
H    -4.389259     1.285853    -3.032957
H    -5.073281     4.147746     0.062061
O    -5.511756     3.281701    -0.042204
H    -6.441409     3.400980    -0.326197
H     6.752832    -1.174316    -1.328129
O     5.971349    -1.032738    -0.788682
H     5.555211    -1.901692    -0.593882
H     4.608824    -3.168467    -2.449326
O     3.742461    -2.998692    -2.868111
H     3.748019    -3.616868    -3.624542
H     4.430584    -2.292418     5.641344
O     4.086262    -2.758352     6.433980
H     4.421704    -3.663135     6.352855
H    -0.757298     6.338928     5.080958
O    -1.355413     6.914896     5.617518
H    -1.367766     7.791805     5.175750
H     4.712173    -0.133118    -1.446052
O     3.943910     0.406530    -1.711837
H     3.253638    -0.195554    -2.042789
H    -0.723849     4.522992    -4.031426
O    -1.506031     5.066095    -4.241631
H    -1.355391     5.932800    -3.818818
H     0.675311     3.203573    -2.648498
O     0.683287     3.579833    -3.557260
H     0.733711     2.816264    -4.142311
H    -5.378310    -5.192843     1.790481
O    -4.680810    -5.787846     1.437192
H    -3.840952    -5.371698     1.709605
H     7.864424    -1.690296    -4.052574
O     7.656652    -1.353712    -3.148275
H     7.135849    -0.521155    -3.297381
H     3.722727    -5.072132    -5.272505
O     4.485020    -4.699871    -4.790006
H     4.866666    -5.411200    -4.242967
H    -3.786670     0.019471     4.934061
O    -4.388886     0.483481     5.565416
H    -5.049856    -0.174516     5.855570
H     3.475287    -5.942736    -0.502372
O     4.348968    -5.695647    -0.817749
H     4.423948    -4.733029    -0.673384
H     5.022793    -0.336458    -4.138779
O     4.487336    -1.047417    -4.530789
H     4.157947    -1.629227    -3.813607
H    -1.153794     1.571649    -3.931131
O    -1.803768     2.191586    -4.318781
H    -1.443872     2.523454    -5.163994
H     4.899049    -6.322676    -2.293443
O     5.235114    -6.647344    -3.158160
H     6.051166    -7.130284    -2.968851
H     8.744811    -5.106452    -2.907993
O     8.066999    -5.514231    -2.328011
H     8.092438    -6.472398    -2.428902
H     2.346387     4.720138     0.464985
O     1.764596     4.702379     1.234328
H     1.407761     3.781846     1.311316
H    -4.416284    -2.633130     4.229851
O    -5.309846    -2.293803     4.025265
H    -5.171631    -1.512764     3.449858
H    -5.840091    -3.195107     1.312560
O    -6.304417    -3.752054     1.979991
H    -6.117890    -3.316301     2.830838
H     1.679385     3.470446     6.874227
O     1.057314     3.985591     6.338991
H     0.273147     4.138784     6.908760
H     5.000851    -2.168327     3.636742
O     5.019134    -1.451623     4.302240
H     4.208961    -0.893628     4.142260
H     2.388960    -5.574956     4.853615
O     2.769401    -6.459209     4.594784
H     2.024496    -7.040526     4.419461
H     2.282075    -4.517613    -6.775625
O     2.111695    -5.005742    -5.960096
H     1.844604    -4.314217    -5.305691
H     6.448882    -4.103117    -0.477741
O     7.200013    -4.509409    -0.013685
H     7.708239    -4.932228    -0.733537
H    -1.734550     4.492014     7.704464
O    -0.836844     4.590293     8.092436
H    -0.655789     5.549457     8.116433
H    -5.096452     5.692695    -5.601576
O    -4.489003     4.929086    -5.620418
H    -3.730127     5.143517    -6.184258
H     3.310360    -2.529130    -8.420060
O     3.221542    -3.062225    -7.619102
H     4.096865    -3.036675    -7.188123
H    -0.646182     8.826702    -2.273771
O    -0.524603     9.655439    -1.754960
H     0.236519     9.481238    -1.176526
H     2.063147    -0.910917     5.224644
O     1.489329    -1.436881     5.811199
H     1.581218    -1.091048     6.708408
H     5.228826    -2.024379    -5.671137
O     5.577745    -2.791057    -6.191455
H     5.300617    -3.580937    -5.675723
H     5.693048    -5.213498     4.708709
O     5.169864    -5.129376     5.534703
H     4.447730    -5.760418     5.447385
H    -3.981877     1.148251     7.005865
O    -3.791912     1.624141     7.850160
H    -4.668598     2.009890     8.108679
H    -1.841025     9.614883    -0.744301
O    -2.702612     9.488802    -0.271713
H    -3.312913     10.116877    -0.661604
H    -5.932848     4.689283    -2.945598
O    -6.840752     4.569882    -3.291805
H    -6.748557     3.867243    -3.968386
H     0.106010    -7.064488    -1.132645
O     0.568670    -7.500615    -0.384075
H    -0.111939    -7.694841     0.263498
H    -7.624177     3.791081    -1.984266
O    -7.887582     3.204397    -1.244671
H    -7.743357     2.295601    -1.583411
H     3.966454    -0.890233     7.003860
O     3.975188     0.073895     6.995755
H     4.787670     0.364232     6.564592
H     2.269513     5.796050    -1.168447
O     3.204533     5.503752    -1.051010
H     3.384265     4.963373    -1.843349
H     6.555656    -5.931324     0.697885
O     6.186716    -6.667410     1.231236
H     5.281732    -6.389918     1.456458
H    -3.878427     4.731809     7.778875
O    -3.310230     4.268819     7.121433
H    -3.503775     3.325417     7.231669
H     5.770365    -7.945934     0.162136
O     5.485551    -8.632505    -0.477431
H     4.656009    -8.308277    -0.872238
H    -0.566837     2.044433     7.699931
O    -1.198495     1.979419     6.963568
H    -2.067841     1.837975     7.358225
H    -6.376422    -0.120421     1.055980
O    -6.694824    -0.204602     0.142480
H    -7.613643    -0.475163     0.158799
H    -5.362009    -3.063446    -0.591548
O    -5.111388    -2.361342     0.034921
H    -5.680740    -1.588316    -0.154181
H     4.326415     5.578007     0.337032
O     4.656679     5.680131     1.243327
H     3.960350     6.190126     1.692806
H    -9.030266    -1.745081    -2.265132
O    -8.484226    -1.543315    -1.477927
H    -8.612827    -2.279737    -0.840274
H    -5.503327     3.469833    -5.532978
O    -6.021562     2.759193    -5.119291
H    -5.355815     2.174052    -4.703686
H     3.202880    -0.889088    -5.638965
O     2.347920    -1.010233    -6.106335
H     2.434653    -1.859199    -6.579344
H     8.137612    -1.349614    -6.000189
O     8.144014    -2.214972    -5.544906
H     7.287080    -2.612703    -5.797850
H     7.647433     0.984685    -6.280287
O     7.457158     0.137761    -6.696362
H     6.475811     0.090771    -6.734261
H    -7.854191    -3.691580     0.921622
O    -8.531204    -3.585179     0.235767
H    -8.431393    -4.344736    -0.365470
H    -2.402140     8.737926     1.293156
O    -2.253166     8.149746     2.046828
H    -1.482424     7.596526     1.826070
H    -4.443636     6.437567     3.493117
O    -4.612196     6.863293     2.636149
H    -3.848394     7.449088     2.497842
H     3.417749     3.446398    -3.562032
O     3.262503     4.415352    -3.469783
H     2.297972     4.479184    -3.579682
H    -6.099357    -1.605946    -3.447130
O    -6.184229    -2.185131    -2.663286
H    -6.969151    -1.877502    -2.156366
H     6.464918     1.052033     4.762173
O     6.069769     1.590227     5.465238
H     6.257440     2.508902     5.173712
H     1.383182     1.720769    -5.811480
O     1.185673     1.124810    -5.058113
H     1.551402     0.262198    -5.325975
H    -2.505205     2.967656     10.485775
O    -2.292589     2.059813     10.213593
H    -2.888282     1.860007     9.479615
H     7.628983    -0.494121     3.106187
O     6.879100     0.079759     3.280851
H     6.185984    -0.521686     3.654675
H    -5.649283    -8.053644    -0.702444
O    -4.915896    -8.122222    -0.054343
H    -4.920754    -7.304668     0.467256
H    -5.158364    -0.119570    -4.718358
O    -5.774848    -0.831495    -4.959392
H    -6.612538    -0.389887    -5.159542
H     1.915543    -0.200383    -7.501853
O     1.715370     0.270302    -8.346705
H     2.294176    -0.134715    -8.998025
H     4.901878    -1.395884    -9.283720
O     3.977158    -1.168317    -9.568258
H     3.959556    -1.285340    -10.517436
H     7.565122    -2.565870     4.221597
O     7.717778    -2.606079     3.263213
H     7.219675    -3.393814     2.991561
H     6.722468    -5.894336     2.711215
O     6.783876    -5.217825     3.410943
H     7.658301    -5.303228     3.831387
H    -1.820966     8.949687     3.498361
O    -1.575727     9.254899     4.397229
H    -2.425706     9.387281     4.850479
H    -7.369931     1.566699    -5.259372
O    -7.945343     0.822583    -5.015547
H    -8.847210     1.222228    -4.941685
H     6.952865    -1.084081    -8.379523
O     6.373101    -1.806580    -8.644273
H     6.142514    -2.255075    -7.812406
H    -1.652262     6.239443    -7.019930
O    -2.051184     5.414496    -6.746903
H    -1.804654     5.283902    -5.782617
H    -0.011735     3.314968     9.030821
O     0.184669     2.395371     9.287073
H    -0.614958     2.131451     9.791543
H     6.771388    -2.777403    -2.679701
O     6.242121    -3.522451    -2.339098
H     6.708103    -4.333935    -2.587140
H    -4.058146    -3.073867    -4.942960
O    -4.210212    -2.961803    -5.908184
H    -4.757254    -2.168698    -5.965928
H     1.968847     2.187317     8.477992
O     2.634262     2.299812     7.789495
H     3.057017     1.429700     7.674992
H    -6.896517    -5.201034    -1.400375
O    -7.811466    -5.470867    -1.648021
H    -7.943054    -5.068519    -2.531388
H    -3.832189     5.259546     5.695240
O    -3.798278     6.027880     5.104399
H    -2.864438     6.322221     5.200279
H    -7.872439     0.088297    -1.975387
O    -7.381835     0.811732    -2.388195
H    -7.607858     0.800256    -3.341947
H     5.849783     0.139568     0.431941
O     5.612753     0.851127     1.057900
H     6.131537     0.661804     1.865871
H    -6.223988     3.315473     7.389726
O    -6.098168     2.797578     8.218939
H    -6.698129     2.036163     8.129482
H     2.287902    -8.073115    -0.825295
O     2.966974    -8.061596    -1.519621
H     2.742674    -8.775522    -2.133140
H    -2.722549    -3.963067    -6.192834
O    -1.969549    -4.529370    -5.959037
H    -1.695206    -4.237120    -5.061478
H    -5.647902     3.764803     5.303985
O    -6.298368     4.161650     5.919622
H    -6.134616     5.105668     5.906157
H    -1.003547    -7.114722    -3.153625
O    -0.532110    -6.444935    -2.624572
H     0.375994    -6.375375    -3.003683
H     4.441226     2.019797     5.146704
O     3.499564     2.258611     5.025069
H     3.113759     2.275385     5.906213
H     4.103359     4.660681     6.317340
O     4.184173     5.391486     5.700044
H     3.619384     5.149939     4.927333
H     2.764614     3.620186     3.936517
O     2.586139     4.560083     3.770206
H     2.469842     4.658330     2.803335
H     9.470900     0.604505    -0.565665
O     8.568972     0.622088    -0.202796
H     8.368173    -0.289076     0.051237
H    -2.117093     5.326860     10.652967
O    -2.839546     4.698356     10.883170
H    -3.059995     4.876289     11.797700
H     7.949467    -3.101333     0.415351
O     8.408112    -2.259147     0.636358
H     8.364659    -2.251758     1.604266
H     5.372468     3.667004     3.544005
O     6.024979     3.932255     4.214124
H     5.611293     4.651961     4.712308
H    -4.223333     5.028361     9.782559
O    -4.855054     5.179008     9.059284
H    -5.466610     4.430145     9.055628
H    -6.995053    -3.478060    -3.490691
O    -7.614495    -4.090270    -3.940164
H    -7.091831    -4.532535    -4.641029
H     0.010958     6.135159     10.777564
O    -0.853042     6.466758     10.528520
H    -0.735429     6.896521     9.662011
H     2.607195     1.494440    -4.089771
O     3.485100     1.847415    -3.850889
H     3.804611     1.334074    -3.078630
H    -6.980954    -0.213397     7.213171
O    -7.490413     0.565025     7.492180
H    -8.111662     0.748413     6.786365
H    -2.733480    -9.872489    -0.822295
O    -2.669821    -8.930984    -0.982726
H    -3.576207    -8.564189    -0.744142
H    -10.049473     3.075671    -4.912968
O    -10.167448     2.158369    -4.632079
H    -10.385033     2.242963    -3.682795
H    -2.070167    -3.020723     4.620042
O    -2.945214    -3.460922     4.688057
H    -2.937510    -4.078857     3.931918
H    -0.176307    -7.979987     2.498085
O     0.649206    -7.769979     2.947809
H     1.368617    -8.065864     2.362453
H     6.701679    -2.371059     6.415389
O     7.151387    -3.082326     5.954311
H     6.520224    -3.816080     5.915789
H    -5.279933    -1.998096     6.942025
O    -5.955428    -1.500513     6.456459
H    -5.936908    -1.877695     5.547381
H     0.859717     3.030596    -7.104993
O     1.777450     2.699920    -7.159319
H     1.765159     1.951960    -7.784524
H    -3.961672     8.761635     6.669206
O    -3.958369     8.759148     5.711840
H    -4.082400     7.831380     5.444256
H    -2.045430     10.314214    -2.737477
O    -2.946351     10.496003    -3.041441
H    -2.872719     11.129193    -3.754829
H     9.408132    -4.056034     4.077300
O     9.130302    -4.735780     4.698913
H     8.696041    -4.265272     5.421547
H    -0.714038    -5.998580    -5.830052
O    -0.011141    -6.565046    -5.495191
H     0.824722    -6.103428    -5.711258
H     1.832268     8.277132     0.673216
O     1.530713     8.598754    -0.205095
H     2.346515     8.635777    -0.734020
H     3.520491     2.927566    -6.646697
O     4.347266     2.636314    -6.236709
H     4.101721     2.364833    -5.327201
H     3.744423     7.125628    -1.215809
O     3.949903     8.061316    -1.429932
H     4.322259     8.003833    -2.321947
H     4.420692    -0.008483    -7.893080
O     4.796199     0.136173    -7.022758
H     4.615104     1.068410    -6.778840
H     6.034877     1.942404    -0.462506
O     6.599811     2.126225    -1.226034
H     7.426747     1.653515    -1.009417
H     6.695165    -8.431307    -1.578485
O     7.334234    -8.221037    -2.313003
H     7.699523    -9.055838    -2.601109
H    -5.281718    -5.788881    -5.407262
O    -5.898193    -5.117143    -5.723933
H    -5.346498    -4.348964    -5.959627
H     0.673668     7.178744     7.608555
O    -0.228663     7.206718     7.966183
H    -0.782309     7.220914     7.147387
H    -8.880485    -2.833395    -4.111281
O    -9.401461    -2.024873    -3.945456
H    -9.113847    -1.360212    -4.575117
H    -2.397478    -5.987495    -2.136644
O    -3.275176    -5.701698    -2.407222
H    -3.460398    -6.076476    -3.293308
H    -2.967116    -5.900455    -5.403997
O    -3.567978    -6.510168    -4.932870
H    -3.086388    -7.330312    -4.764754
H    -1.367297     3.725184    -6.978540
O    -0.827772     2.969415    -6.706261
H    -1.063543     2.184042    -7.256208
H    -0.177879     0.415297    -8.207354
O    -1.074767     0.650224    -7.926375
H    -1.251329     0.127554    -7.128128
H    -10.408723     4.054369    -2.749914
O    -10.477558     3.276031    -2.181505
H    -9.649076     3.249650    -1.671102
H     4.585866     4.082027     1.737515
O     4.376593     3.161847     2.017018
H     5.092073     2.584899     1.735737
H     6.508298     1.389980    -4.191563
O     6.204590     0.765082    -3.498711
H     6.233776     1.264426    -2.655135
H     9.614902    -2.308870    -0.915661
O     9.912594    -2.121911    -1.823790
H     9.127219    -1.695337    -2.238025
H     9.949403    -3.467785    -3.189194
O     9.723843    -4.115053    -3.883167
H     9.242805    -3.602957    -4.548269
H    -7.687557    -8.572999    -1.669481
O    -6.949296    -7.978933    -1.796674
H    -7.326787    -7.065779    -1.788167
H     4.177950     6.080238    -3.805228
O     4.838550     6.781837    -3.719467
H     5.674337     6.327668    -3.579328
H     0.116633    -8.171286    -5.202242
O     0.140478    -9.154152    -5.069783
H     0.292279    -9.518359    -5.941931
H    -2.319518    -8.672923    -2.707545
O    -2.083671    -8.409836    -3.616803
H    -1.436249    -9.028532    -3.973633
H     2.197799    -10.816934    -3.476135
O     2.152563    -9.862315    -3.452963
H     1.368236    -9.591506    -3.980886
H     6.858079     3.324634    -4.550317
O     6.913351     2.647090    -5.252168
H     6.121442     2.784542    -5.793582
H    -3.573186    -3.716762     7.724173
O    -3.686706    -2.929268     7.193506
H    -3.433262    -3.168531     6.275833
H    -0.615606    -3.363426    -6.715137
O     0.015052    -2.632376    -6.721701
H    -0.466992    -1.856421    -6.381397
H     0.630560     0.467470     8.762771
O     0.639536    -0.248279     8.123270
H    -0.282591    -0.536764     8.033366
H    -5.816861     7.368485    -4.258578
O    -6.318768     6.749480    -4.820394
H    -6.606695     6.018680    -4.229503
H    -4.263636     9.104049    -3.268030
O    -4.799762     8.308112    -3.162341
H    -4.392713     7.828807    -2.422501
H    -9.693352     5.797543    -4.660832
O    -10.227126     4.992962    -4.498091
H    -11.107017     5.193735    -4.818909
H     2.762938     6.520378     6.152287
O     1.802620     6.617243     6.248585
H     1.459254     5.703955     6.145180
H     4.811263     8.549210     0.099123
O     5.126185     8.550703     1.020928
H     5.533373     7.686626     1.152967
H     4.159882    -7.426818    -4.320704
O     3.403492    -7.712148    -4.864913
H     3.121702    -8.552563    -4.488669
H     0.375439     8.663875     4.240408
O     1.053831     8.019376     4.014074
H     1.278663     7.526765     4.829331
H     5.250669     4.189495    -3.137831
O     6.211913     4.161951    -3.084871
H     6.422315     3.577718    -2.338653
H    -2.586468    -1.538755     7.577556
O    -2.076549    -0.745595     7.798696
H    -2.703196    -0.118914     8.170760
H    -9.010863     7.937645    -4.160797
O    -8.946039     7.352723    -4.917184
H    -7.988598     7.188556    -5.050026
H     3.535763    -8.978024     1.112199
O     2.858316    -8.346250     1.358688
H     3.331712    -7.540444     1.639564
H     3.588144     8.174766     1.841552
O     2.796678     7.612211     1.952647
H     2.349577     7.847993     2.778197
N     11.108473     0.316134    -1.423471
H     11.938106     0.297008    -0.939730
H     10.905447    -0.621130    -1.630551
