603

H     0.218641     3.047025    -0.650818
O     0.735684     2.377211    -1.148143
H     1.676744     2.501917    -0.880175
H    -0.051677    -1.297330     3.172718
O     0.339105    -0.597837     2.626546
H    -0.133113     0.217355     2.864854
H    -2.382142     2.436616    -0.493680
O    -2.169286     1.963672     0.328383
H    -2.188274     1.016403     0.101653
H    -4.637616     0.576739     2.234686
O    -4.960435    -0.354970     2.245632
H    -4.457600    -0.834076     1.578723
H     0.078412    -0.295304     0.973907
O    -0.124762    -0.055752     0.048965
H     0.218816     0.839238    -0.072272
H    -0.135175    -3.568525     3.795750
O    -0.408582    -2.738192     4.219389
H     0.242538    -2.571240     4.917483
H    -4.857156     2.563108     1.388460
O    -4.216500     2.148269     1.998462
H    -3.376623     2.128822     1.480866
H    -3.237137     3.931158    -2.161795
O    -2.501534     3.329663    -1.936121
H    -2.148371     3.043177    -2.798443
H    -0.127354    -3.790052     0.520330
O     0.218189    -2.974576     0.937478
H    -0.565150    -2.485774     1.255440
H    -2.358314    -1.518451     2.504863
O    -2.177921    -1.984054     1.661763
H    -2.436541    -1.393742     0.934975
H     2.069903    -1.434245    -1.113315
O     2.306153    -1.689765    -0.197783
H     1.517731    -2.115034     0.190104
H    -1.360886     1.842261     1.947388
O    -1.450757     1.442763     2.822759
H    -1.428490     2.153283     3.489546
H     0.197926    -2.685648    -1.553173
O    -0.555874    -2.071161    -1.601489
H    -0.369329    -1.346507    -0.967594
H    -3.440038    -2.895180    -0.351678
O    -2.728586    -3.389667    -0.779153
H    -2.016439    -2.761990    -0.999996
H     2.800677     0.127311     2.939969
O     2.904600    -0.057829     3.900664
H     3.002267     0.833773     4.306752
H    -3.497605     6.410890    -0.485404
O    -3.260548     7.073185    -1.185887
H    -3.112792     7.917365    -0.715591
H     3.920974     0.581306     1.186262
O     2.970436     0.402917     1.307758
H     2.726886    -0.347289     0.728202
H    -5.778761     0.884428    -1.541156
O    -4.866564     1.208372    -1.423004
H    -4.968852     2.036800    -0.909556
H    -1.167376     5.413219     2.250659
O    -1.795923     4.668528     2.136745
H    -1.869649     4.248767     2.999080
H     3.516561     2.763548     0.432104
O     3.262130     2.723226    -0.505458
H     3.589696     1.880257    -0.859710
H     1.468400    -4.683359    -2.245914
O     1.539064    -3.907331    -1.671814
H     2.333591    -3.448742    -2.026580
H    -0.927757    -0.060956    -2.518735
O    -0.293755     0.589834    -2.846296
H    -0.025745     1.169901    -2.110216
H     1.688894    -4.676777    -0.175817
O     1.797555    -5.315577     0.565063
H     1.329516    -6.124488     0.270229
H    -1.247030    -3.239840    -2.855181
O    -1.081847    -3.922670    -3.518618
H    -0.954956    -4.771062    -3.052338
H    -2.728730     3.326342     4.751473
O    -1.747854     3.319080     4.711023
H    -1.451381     2.914851     5.544821
H     1.016439     5.038197     4.102649
O     0.071561     5.273727     4.161160
H    -0.401647     4.471852     4.420691
H    -1.742014    -4.627964    -0.346894
O    -0.977269    -5.172254    -0.067879
H    -1.323588    -5.858803     0.511497
H    -3.902470     5.868173    -2.539909
O    -4.258417     5.036082    -2.869334
H    -4.109528     5.002910    -3.838792
H    -2.423916    -3.668327     1.967184
O    -2.443966    -4.573392     2.340768
H    -1.504258    -4.815511     2.475320
H    -4.715163    -2.941223    -2.851450
O    -3.867094    -3.175934    -3.264867
H    -3.534991    -3.971533    -2.803591
H     0.382590     1.381739     4.638763
O     0.889091     2.140542     4.302952
H     0.945543     2.797903     5.010783
H    -4.676040    -5.132726    -1.529370
O    -5.373279    -4.777647    -0.950847
H    -5.155844    -5.134650    -0.068643
H     2.284783    -6.467977    -4.043438
O     1.954060    -6.139681    -3.187238
H     2.390559    -6.716375    -2.527808
H     0.437728    -3.357830    -3.992200
O     1.239266    -2.993207    -4.419362
H     0.916409    -2.618593    -5.265231
H     1.985173    -1.751369     2.989303
O     2.134816    -2.682528     2.769220
H     1.444050    -2.891842     2.106000
H    -3.032517    -1.775588    -3.171617
O    -2.607006    -0.890800    -3.106913
H    -3.261349    -0.241900    -3.422063
H    -3.154654     5.001486     1.132721
O    -3.938304     5.378215     0.684222
H    -4.346162     5.937148     1.394029
H     0.910412     2.260305     2.612965
O     1.004690     2.256659     1.641086
H     1.728697     1.631549     1.471145
H     0.217519     5.673248    -0.725205
O     0.738538     6.333738    -1.236252
H     0.887373     7.132192    -0.680213
H     0.396172     7.044963     2.625303
O     0.027312     6.667055     1.809722
H     0.687439     5.994860     1.542660
H    -2.448971     0.234231     3.379734
O    -2.671347    -0.580171     3.883945
H    -1.907222    -0.623984     4.501131
H    -0.845386     0.560839     6.054675
O    -0.578755     0.041475     5.277571
H     0.134571    -0.564977     5.558576
H     0.711245    -4.985748     1.989053
O     0.173029    -5.094893     2.796320
H     0.316350    -6.016429     3.066080
H    -2.139040    -8.065330     0.468477
O    -1.809858    -7.580014     1.252477
H    -2.591922    -7.267014     1.714504
H    -0.357530     6.885261    -2.286873
O    -1.105422     7.308877    -2.780631
H    -1.892315     7.184957    -2.212269
H    -1.083601     4.328393     0.612206
O    -0.716336     4.389263    -0.286229
H    -1.428060     4.151955    -0.914491
H    -4.367056     2.773238     3.562927
O    -4.359561     2.941856     4.527727
H    -4.443394     2.058420     4.935806
H     2.045331    -3.583649     4.247520
O     1.984732    -4.057409     5.100113
H     2.498204    -3.524284     5.728638
H     4.689402    -3.200189     0.826361
O     4.523055    -3.122041    -0.138950
H     3.665667    -2.641046    -0.215982
H    -2.724625    -0.719424    -1.313367
O    -3.046238    -0.450577    -0.436395
H    -3.844833     0.080034    -0.637175
H    -1.638776    -0.729659    -4.599339
O    -1.136778    -0.514231    -5.406338
H    -0.422654     0.079115    -5.125066
H     1.776057    -1.700097    -3.368886
O     1.874839    -0.955033    -2.744684
H     1.099285    -0.374316    -2.870204
H     3.675526    -3.127008     2.544421
O     4.633133    -3.359591     2.464682
H     4.685017    -4.320150     2.589418
H     3.430162    -6.126322     3.112669
O     3.780824    -5.925270     2.210535
H     3.041367    -5.575358     1.673129
H    -3.354083     1.647649    -4.131914
O    -4.200196     1.180478    -3.936345
H    -4.410046     1.325892    -2.978228
H    -5.052287     4.184342     0.132000
O    -5.495964     3.320455     0.028595
H    -6.428828     3.445850    -0.239816
H     6.729707    -1.191563    -1.384438
O     5.961325    -1.040084    -0.827735
H     5.540346    -1.906607    -0.629246
H     4.574296    -3.167608    -2.482590
O     3.704422    -2.992182    -2.892659
H     3.700769    -3.609387    -3.650108
H     4.469604    -2.307847     5.612156
O     4.129522    -2.773785     6.406301
H     4.460883    -3.679803     6.320909
H    -0.687917     6.346298     5.114980
O    -1.279081     6.923237     5.657930
H    -1.291739     7.801326     5.218355
H     4.697712    -0.137459    -1.473366
O     3.930716     0.408351    -1.730246
H     3.233946    -0.188902    -2.057157
H    -0.741024     4.550045    -4.000869
O    -1.523550     5.095792    -4.202068
H    -1.365851     5.961490    -3.779754
H     0.664710     3.221548    -2.633167
O     0.667411     3.599784    -3.541013
H     0.708313     2.837348    -4.128297
H    -5.384706    -5.159703     1.841036
O    -4.692888    -5.755829     1.479105
H    -3.848666    -5.344721     1.745887
H     7.857692    -1.699554    -4.063986
O     7.606707    -1.387074    -3.162131
H     7.122391    -0.540889    -3.313957
H     3.655946    -5.062226    -5.300478
O     4.422771    -4.692654    -4.823476
H     4.808016    -5.406256    -4.281580
H    -3.744335     0.039032     4.981449
O    -4.339656     0.504270     5.618270
H    -5.000189    -0.151881     5.913628
H     3.445700    -5.940478    -0.529869
O     4.317180    -5.696224    -0.853253
H     4.398548    -4.734538    -0.708035
H     4.981556    -0.333104    -4.169954
O     4.440758    -1.041524    -4.557677
H     4.117093    -1.624969    -3.838851
H    -1.182593     1.599710    -3.903402
O    -1.833685     2.222799    -4.283944
H    -1.479959     2.555472    -5.131599
H     4.853160    -6.322560    -2.335565
O     5.179036    -6.647259    -3.203939
H     5.996308    -7.131801    -3.023418
H     8.709505    -5.106997    -2.960813
O     8.019929    -5.523040    -2.399052
H     8.050231    -6.480297    -2.503097
H     2.368776     4.724471     0.468553
O     1.794343     4.707180     1.243357
H     1.433723     3.788270     1.321437
H    -4.390806    -2.609532     4.276803
O    -5.284716    -2.266247     4.080037
H    -5.148221    -1.484089     3.505958
H    -5.842301    -3.158884     1.371217
O    -6.304814    -3.714458     2.040864
H    -6.107636    -3.282534     2.891341
H     1.752393     3.463809     6.881143
O     1.127988     3.982516     6.352086
H     0.349499     4.138137     6.929122
H     5.023399    -2.181483     3.603082
O     5.050829    -1.464664     4.268492
H     4.240313    -0.904804     4.117975
H     2.406938    -5.580573     4.835515
O     2.781687    -6.465438     4.571326
H     2.033248    -7.043706     4.401094
H     2.204249    -4.497238    -6.790449
O     2.037940    -4.986473    -5.974734
H     1.780579    -4.295442    -5.316294
H     6.428193    -4.113622    -0.529541
O     7.182604    -4.520632    -0.071728
H     7.683703    -4.944036    -0.796459
H    -1.649749     4.497748     7.743143
O    -0.748061     4.591356     8.122899
H    -0.563025     5.549764     8.148083
H    -5.125125     5.737828    -5.528804
O    -4.519915     4.971837    -5.554873
H    -3.766438     5.185151    -6.126080
H     3.225894    -2.509850    -8.439715
O     3.141079    -3.043353    -7.638631
H     4.020595    -3.023541    -7.215477
H    -0.630180     8.849479    -2.235108
O    -0.500660     9.676220    -1.715226
H     0.264638     9.497833    -1.143795
H     2.103911    -0.915726     5.219575
O     1.532356    -1.440265     5.809402
H     1.633590    -1.097400     6.706765
H     5.169467    -2.019666    -5.707232
O     5.509115    -2.786401    -6.232828
H     5.235582    -3.576175    -5.714893
H     5.712053    -5.232035     4.662662
O     5.195367    -5.146427     5.492776
H     4.471004    -5.775617     5.410840
H    -3.917027     1.164408     7.057117
O    -3.717603     1.637718     7.900537
H    -4.590318     2.026612     8.167745
H    -1.809366     9.639024    -0.693787
O    -2.667073     9.514600    -0.213906
H    -3.278376     10.146429    -0.596215
H    -5.937786     4.736449    -2.869285
O    -6.852814     4.612193    -3.194444
H    -6.771031     3.920360    -3.883054
H     0.066668    -7.047579    -1.134123
O     0.533972    -7.486750    -0.390318
H    -0.141637    -7.680150     0.262659
H    -7.600023     3.836428    -1.881616
O    -7.882422     3.252058    -1.144642
H    -7.743324     2.342639    -1.482904
H     4.022375    -0.906765     6.982291
O     4.034575     0.057360     6.974657
H     4.845371     0.344909     6.538658
H     2.282386     5.804517    -1.160579
O     3.217409     5.507664    -1.052780
H     3.386812     4.968573    -1.848237
H     6.538827    -5.942697     0.641940
O     6.170583    -6.678581     1.176525
H     5.268730    -6.398176     1.409797
H    -3.791693     4.745926     7.836897
O    -3.231446     4.281938     7.173230
H    -3.427733     3.339131     7.283612
H     5.739049    -7.954508     0.109383
O     5.444226    -8.639411    -0.527352
H     4.614005    -8.309698    -0.915812
H    -0.492251     2.045342     7.723299
O    -1.130510     1.984234     6.992230
H    -1.996924     1.845628     7.394298
H    -6.364237    -0.082602     1.124066
O    -6.697389    -0.159748     0.214788
H    -7.614533    -0.434310     0.244545
H    -5.379107    -3.026409    -0.536340
O    -5.121717    -2.325208     0.088581
H    -5.688698    -1.549845    -0.095872
H     4.350124     5.575041     0.325616
O     4.690094     5.672481     1.228916
H     4.000705     6.185006     1.686462
H    -9.056623    -1.691560    -2.176710
O    -8.507697    -1.488295    -1.392145
H    -8.628359    -2.227672    -0.755562
H    -5.543038     3.519331    -5.461371
O    -6.057997     2.808493    -5.043449
H    -5.388101     2.221489    -4.637447
H     3.148600    -0.875690    -5.654217
O     2.289143    -0.991708    -6.114528
H     2.368651    -1.839985    -6.590349
H     8.078164    -1.356541    -6.060618
O     8.085787    -2.221340    -5.605665
H     7.226486    -2.617487    -5.851533
H     7.592007     0.986366    -6.334178
O     7.396964     0.139500    -6.747536
H     6.415225     0.093591    -6.777607
H    -7.862492    -3.644671     0.995414
O    -8.543760    -3.533379     0.314377
H    -8.452718    -4.293502    -0.287839
H    -2.356257     8.759983     1.346783
O    -2.203000     8.169321     2.097741
H    -1.436252     7.613938     1.869020
H    -4.387229     6.463171     3.559885
O    -4.561454     6.890433     2.704804
H    -3.797257     7.474471     2.561201
H     3.399519     3.454482    -3.570172
O     3.250679     4.424122    -3.473968
H     2.285452     4.493025    -3.575466
H    -6.135337    -1.559070    -3.383187
O    -6.217164    -2.138268    -2.598854
H    -6.995674    -1.828182    -2.084930
H     6.510082     1.030246     4.722776
O     6.122567     1.569205     5.429180
H     6.312310     2.487708     5.138661
H     1.338572     1.742461    -5.805309
O     1.146319     1.145842    -5.050972
H     1.505298     0.282076    -5.324568
H    -2.402330     2.970330     10.528121
O    -2.195699     2.062360     10.251715
H    -2.798959     1.866594     9.522893
H     7.652763    -0.519251     3.056460
O     6.906074     0.059059     3.230973
H     6.213964    -0.539107     3.614010
H    -5.688445    -8.014381    -0.655508
O    -4.949893    -8.087051    -0.013933
H    -4.946985    -7.270694     0.509441
H    -5.198323    -0.073924    -4.659562
O    -5.820382    -0.783050    -4.894959
H    -6.656357    -0.337182    -5.091790
H     1.848518    -0.177275    -7.504457
O     1.643176     0.296780    -8.346178
H     2.214032    -0.109450    -9.003763
H     4.814233    -1.381177    -9.314747
O     3.888154    -1.148222    -9.590531
H     3.861491    -1.264000    -10.539672
H     7.587920    -2.593881     4.169626
O     7.728206    -2.628746     3.209118
H     7.230179    -3.417308     2.939154
H     6.721687    -5.911918     2.654059
O     6.790391    -5.238151     3.355902
H     7.668630    -5.327261     3.768003
H    -1.754519     8.964716     3.547314
O    -1.499586     9.266383     4.444645
H    -2.344753     9.402115     4.905827
H    -7.408773     1.626247    -5.175540
O    -7.980050     0.878678    -4.929998
H    -8.887540     1.263762    -4.867683
H     6.875208    -1.080777    -8.427753
O     6.288600    -1.799008    -8.688782
H     6.064473    -2.249472    -7.856156
H    -1.690753     6.275766    -6.977904
O    -2.088634     5.450974    -6.702901
H    -1.835256     5.318661    -5.740980
H     0.079701     3.310803     9.052081
O     0.274458     2.389698     9.304093
H    -0.521565     2.127997     9.815411
H     6.734929    -2.786984    -2.730215
O     6.203618    -3.529750    -2.387230
H     6.667431    -4.341954    -2.638041
H    -4.113825    -3.032086    -4.899734
O    -4.274374    -2.917567    -5.863270
H    -4.817513    -2.121488    -5.915069
H     2.050837     2.176564     8.479496
O     2.710473     2.287375     7.785145
H     3.128541     1.415683     7.665720
H    -6.930101    -5.155090    -1.336858
O    -7.849111    -5.418726    -1.576471
H    -7.986097    -5.015616    -2.458504
H    -3.761539     5.277960     5.754306
O    -3.729687     6.046750     5.163943
H    -2.794108     6.337831     5.252737
H    -7.886848     0.133403    -1.892318
O    -7.406919     0.863968    -2.305425
H    -7.630616     0.849967    -3.259536
H     5.848141     0.121127     0.397831
O     5.632935     0.842395     1.021352
H     6.147728     0.643938     1.830629
H    -6.146679     3.340060     7.465092
O    -6.015415     2.819792     8.291924
H    -6.619441     2.061185     8.206603
H     2.247409    -8.065976    -0.847795
O     2.919614    -8.054626    -1.548658
H     2.688033    -8.766912    -2.161364
H    -2.792770    -3.923741    -6.163143
O    -2.040416    -4.493775    -5.936784
H    -1.756832    -4.204645    -5.041114
H    -5.586312     3.791806     5.375590
O    -6.230884     4.189357     5.996873
H    -6.063584     5.132784     5.984932
H    -1.060290    -7.088698    -3.145681
O    -0.582114    -6.421620    -2.619271
H     0.323483    -6.355505    -3.005432
H     4.493032     2.005354     5.127191
O     3.551548     2.248529     5.013562
H     3.173166     2.265052     5.898002
H     4.176342     4.645413     6.306156
O     4.256318     5.376200     5.688724
H     3.682625     5.139437     4.921191
H     2.812380     3.615317     3.934702
O     2.637363     4.556368     3.771498
H     2.512142     4.657161     2.806035
H     9.394967     0.190335    -1.107765
O     8.592509     0.355434    -0.609171
H     8.416739    -0.463412    -0.116063
H    -2.003341     5.327387     10.696878
O    -2.726429     4.701353     10.931759
H    -2.938403     4.878219     11.848514
H     7.970185    -3.026985     0.294416
O     8.396324    -2.182426     0.548169
H     8.336862    -2.178840     1.510904
H     5.415680     3.652975     3.520244
O     6.077292     3.914362     4.182701
H     5.670974     4.633320     4.688316
H    -4.117947     5.039955     9.844023
O    -4.754971     5.194287     9.126158
H    -5.370062     4.448347     9.126941
H    -7.039611    -3.427203    -3.422499
O    -7.667134    -4.033602    -3.868412
H    -7.152290    -4.478040    -4.574039
H     0.129218     6.127284     10.804620
O    -0.735773     6.462085     10.563444
H    -0.623964     6.893898     9.697236
H     2.576227     1.507882    -4.095884
O     3.457572     1.856648    -3.862536
H     3.780877     1.339317    -3.094831
H    -6.919697    -0.185614     7.287703
O    -7.423183     0.594542     7.572532
H    -8.050170     0.781916     6.872907
H    -2.780553    -9.844759    -0.805095
O    -2.714965    -8.903091    -0.963856
H    -3.617666    -8.533566    -0.716725
H    -10.030561     2.964130    -4.971117
O    -10.297304     2.105369    -4.603456
H    -10.276438     2.306142    -3.642798
H    -2.042988    -3.007276     4.645865
O    -2.919562    -3.443492     4.720044
H    -2.920381    -4.060642     3.963222
H    -0.187118    -7.970158     2.496807
O     0.642875    -7.763431     2.939677
H     1.356309    -8.061364     2.347958
H     6.744960    -2.397784     6.368568
O     7.188221    -3.108778     5.900971
H     6.554947    -3.840915     5.865754
H    -5.228346    -1.976619     6.997997
O    -5.905842    -1.475350     6.518982
H    -5.896875    -1.851199     5.609341
H     0.809985     3.057658    -7.091342
O     1.725712     2.722729    -7.153605
H     1.704821     1.976650    -7.780939
H    -3.868907     8.778902     6.736223
O    -3.872343     8.777862     5.778867
H    -4.003598     7.851354     5.510656
H    -2.026941     10.343917    -2.684225
O    -2.930375     10.528906    -2.978364
H    -2.862780     11.163839    -3.690807
H     9.427386    -4.090918     4.000110
O     9.148627    -4.768862     4.623326
H     8.726073    -4.295850     5.351120
H    -0.789499    -5.968143    -5.822433
O    -0.086441    -6.538029    -5.493897
H     0.749671    -6.079871    -5.716411
H     1.871495     8.283021     0.689763
O     1.563600     8.607201    -0.185304
H     2.374848     8.643110    -0.721162
H     3.474672     2.942918    -6.656600
O     4.303690     2.648406    -6.253308
H     4.063348     2.374399    -5.343232
H     3.762018     7.127911    -1.218969
O     3.970238     8.063114    -1.432218
H     4.333195     8.007057    -2.328103
H     4.351238     0.004045    -7.916826
O     4.734303     0.147204    -7.049505
H     4.558244     1.079562    -6.803371
H     6.042883     1.925185    -0.487829
O     6.603794     2.117173    -1.253145
H     7.427738     1.633962    -1.065460
H     6.646181    -8.440410    -1.640572
O     7.277926    -8.231117    -2.381107
H     7.639417    -9.066345    -2.672716
H    -5.353665    -5.741148    -5.358218
O    -5.970265    -5.065414    -5.666185
H    -5.416937    -4.300022    -5.907113
H     0.768570     7.174973     7.631944
O    -0.130500     7.205252     7.997373
H    -0.691291     7.223873     7.183604
H    -8.929287    -2.774693    -4.022652
O    -9.443098    -1.961404    -3.855434
H    -9.154739    -1.302855    -4.491044
H    -2.441413    -5.957845    -2.113981
O    -3.320192    -5.667661    -2.376465
H    -3.514314    -6.040290    -3.261649
H    -3.038659    -5.862035    -5.375889
O    -3.638279    -6.469813    -4.900649
H    -3.158826    -7.292481    -4.738534
H    -1.412972     3.761148    -6.943579
O    -0.874672     3.002187    -6.677368
H    -1.118401     2.219457    -7.227557
H    -0.248321     0.448858    -8.190528
O    -1.141609     0.686847    -7.900780
H    -1.313243     0.162855    -7.102417
H    -10.032376     4.195248    -2.809743
O    -10.325186     3.498756    -2.188862
H    -9.573189     3.404604    -1.569885
H     4.615361     4.075246     1.720870
O     4.405098     3.154515     1.998897
H     5.117013     2.576380     1.712221
H     6.471224     1.394789    -4.235997
O     6.170110     0.770774    -3.541042
H     6.208656     1.264765    -2.696686
H     9.625015    -2.248084    -0.972362
O     9.896572    -2.033360    -1.873607
H     9.094742    -1.690540    -2.311181
H     9.942740    -3.340746    -3.145416
O     9.668472    -3.990563    -3.819604
H     9.272351    -3.480133    -4.536536
H    -7.736731    -8.523840    -1.606725
O    -6.997985    -7.931371    -1.738460
H    -7.372353    -7.017378    -1.724138
H     4.167998     6.086794    -3.814698
O     4.832457     6.785175    -3.732612
H     5.667766     6.327684    -3.601629
H     0.037584    -8.145618    -5.206037
O     0.057724    -9.128813    -5.075762
H     0.201432    -9.491966    -5.949727
H    -2.378390    -8.642931    -2.691512
O    -2.150235    -8.378288    -3.602217
H    -1.508311    -8.998376    -3.966672
H     2.123810    -10.803136    -3.504273
O     2.081326    -9.848488    -3.477726
H     1.293690    -9.573715    -3.998458
H     6.826901     3.326530    -4.590282
O     6.877578     2.649069    -5.292426
H     6.081262     2.786481    -5.827853
H    -3.521813    -3.703448     7.761868
O    -3.637129    -2.914758     7.233348
H    -3.392195    -3.153400     6.313248
H    -0.687905    -3.331770    -6.702396
O    -0.054790    -2.602919    -6.712530
H    -0.531037    -1.825917    -6.366756
H     0.707996     0.460833     8.772500
O     0.708202    -0.253089     8.130902
H    -0.215810    -0.537853     8.048920
H    -5.821318     7.417726    -4.176636
O    -6.325686     6.798481    -4.735724
H    -6.622336     6.073980    -4.143550
H    -4.255384     9.144004    -3.197240
O    -4.792521     8.349308    -3.087910
H    -4.381078     7.867865    -2.352189
H    -9.660016     5.855353    -4.735221
O    -10.010734     4.958649    -4.558270
H    -10.981297     5.031930    -4.562043
H     2.842622     6.511203     6.156160
O     1.883581     6.611331     6.260512
H     1.535683     5.699585     6.158830
H     4.846338     8.544446     0.090049
O     5.169659     8.542395     1.008925
H     5.574182     7.676355     1.135665
H     4.091302    -7.419122    -4.358404
O     3.328302    -7.699857    -4.895933
H     3.047434    -8.540467    -4.519466
H     0.447390     8.668365     4.269190
O     1.120782     8.021159     4.035614
H     1.350784     7.526340     4.848068
H     5.239055     4.191946    -3.161533
O     6.200697     4.157753    -3.115274
H     6.412176     3.574431    -2.369639
H    -2.527816    -1.529546     7.611115
O    -2.012713    -0.738743     7.828606
H    -2.633065    -0.110531     8.208540
H    -9.029057     7.980771    -4.051675
O    -8.951636     7.425438    -4.828628
H    -7.994792     7.260639    -4.954943
H     3.507891    -8.979613     1.076281
O     2.835408    -8.345423     1.330297
H     3.315158    -7.542574     1.608676
H     3.636867     8.171281     1.842639
O     2.844969     7.610604     1.959406
H     2.405017     7.847037     2.788685
N    -12.664824     4.043739    -4.017180
H    -12.391967     3.220423    -4.447364
H    -12.362852     3.909940    -3.107921
