27

H    -4.558872    -5.249956    -1.595900
O    -5.287604    -4.929683    -1.026572
H    -5.016667    -5.256594    -0.141800
H    -5.186884    -5.248557     1.862999
O    -4.504534    -5.835775     1.476307
H    -3.668865    -5.378772     1.727209
H    -5.833287    -3.274159     1.333764
O    -6.274540    -3.808558     2.050442
H    -6.033238    -3.324187     2.872061
H    -5.370037    -3.100936    -0.644625
O    -5.181001    -2.426092     0.034856
H    -5.723095    -1.634554    -0.175954
H    -7.983887    -3.533487     0.835697
O    -8.720904    -3.596220     0.211848
H    -8.434314    -4.256416    -0.466931
H    -5.759112    -8.221351    -0.231051
O    -4.859206    -8.307111     0.150534
H    -4.743254    -7.469204     0.624637
H    -6.900205    -5.272850    -1.502258
O    -7.865651    -5.377564    -1.672239
H    -7.971166    -5.005904    -2.576097
H    -7.733840    -7.380243     0.471656
O    -7.504022    -7.844913    -0.353721
H    -7.751592    -7.195890    -1.034212
N    -8.181226    -6.138452     1.937710
H    -7.526901    -5.447748     2.117878
H    -8.917487    -5.632779     1.570887
