33

H     3.615639    -2.973547     2.521624
O     4.580303    -3.207526     2.466270
H     4.580777    -4.165300     2.615796
H     3.319861    -6.049621     3.084956
O     3.753758    -5.814376     2.222400
H     3.036421    -5.486748     1.637976
H     3.441052    -5.883641    -0.716114
O     4.361730    -5.633450    -0.829154
H     4.382172    -4.658095    -0.713939
H     2.390201    -5.504264     4.864297
O     2.738633    -6.408992     4.610343
H     1.939232    -6.936453     4.478699
H     5.680573    -5.246104     4.791543
O     5.246763    -5.138597     5.668574
H     4.501607    -5.742829     5.683108
H     6.629707    -5.893433     0.737262
O     6.252411    -6.624810     1.285429
H     5.325625    -6.335624     1.406847
H     5.752131    -7.949584     0.100266
O     5.508700    -8.698080    -0.477104
H     4.656823    -8.432007    -0.871573
H     6.799216    -5.784943     2.739356
O     6.827066    -5.165529     3.494666
H     7.718086    -5.240735     3.899635
H    -0.379726    -7.823583     2.515429
O     0.440660    -7.750930     3.029055
H     1.164602    -8.043140     2.429937
H     3.355566    -8.888221     1.961264
O     2.659037    -8.393229     1.497505
H     3.046807    -7.503272     1.506183
N     4.975162    -8.787186     3.230230
H     4.698880    -8.162903     3.910115
H     5.670466    -8.321488     2.748124
