39
Coordinates from ORCA-job grain_mol_opt.QMRegion
  H   -3.39909589991829      6.44282355736122     -0.49747354409641
  O   -3.22530089618909      7.10198243036986     -1.23032966720310
  H   -3.04347465255888      7.95310101129237     -0.77931345133291
  H   -3.72214012657965      5.84150385282162     -2.77688721237940
  O   -4.16015284194431      5.03325111043770     -3.06693009801953
  H   -3.93126928830234      4.92600974987108     -4.01895306421349
  H   -3.11774743262842      5.00548791866647      1.12628845986158
  O   -3.89428878231098      5.37788095523376      0.64519133583434
  H   -4.31285192018278      5.93467268367616      1.35085565433692
  H   -5.05163156038846      4.14524306773226      0.02386785806641
  O   -5.51485697965929      3.29537714762977     -0.06391564219007
  H   -6.43783450867104      3.38608352998871     -0.38323238421013
  H   -4.95115055633168      5.62378349000433     -5.78981457052769
  O   -4.38120440784286      4.82495707340783     -5.77818634382353
  H   -3.62438352596089      4.98818368773099     -6.36637716778747
  H   -5.90547224148597      4.75834020580005     -3.09683951913167
  O   -6.81995726971923      4.62107374941327     -3.42931246142368
  H   -6.69087299754186      3.88113678231247     -4.07284515631459
  H   -7.60086009028264      3.74209234631277     -2.10718670067825
  O   -7.87238290399511      3.17542065571727     -1.35024248343049
  H   -7.69891875926115      2.26554514779168     -1.69917508584574
  H   -10.60947300792250      3.96066712342820     -2.71211860196836
  O   -10.60522275606012      3.14090201472482     -2.19019805335889
  H   -9.72483678719578      3.14089764260887     -1.77376802848733
  H   -5.69047066504917      7.35130526916606     -4.56073247320428
  O   -6.18663589487159      6.74666573716928     -5.13881961345068
  H   -6.52781641577290      6.06145438539019     -4.51835581842224
  H   -4.27422843244343      9.18668898566369     -3.17948504299398
  O   -4.81554660666338      8.38466776096016     -3.08691224746950
  H   -4.33942068397549      7.86926851877198     -2.40210116466857
  H   -9.76951675168882      5.80302396926064     -4.46149109077436
  O   -10.32696151288757      4.98982321518605     -4.46317825256231
  H   -11.14195841471167      5.25111685649080     -4.89906285330929
  H   -8.56940319308192      7.52173247153424     -3.56812456353093
  O   -8.94328297724021      7.34099951169286     -4.45102924974378
  H   -8.14716437904623      7.30653806971544     -5.00389461665163
  O   -7.47994087247390      7.93434335971130     -2.05648530208254
  H   -7.33813916558884      7.26694489343593     -1.37824592686373
  H   -6.58782550529020      8.22764694547717     -2.31448426794475
