33
Coordinates from ORCA-job grain_mol_opt.QMRegion
  H   -3.50383223634931      6.39361382542482     -0.48889738326439
  O   -3.30564443639617      7.05509514947625     -1.20993025220962
  H   -3.14856432037866      7.90586513962838     -0.75116362338099
  H   -4.07384953867768      5.81769065527627     -2.54049719345947
  O   -4.32646152361514      4.96034814464365     -2.89229601907047
  H   -4.16285189497720      4.97234620382034     -3.86908536750734
  H   0.21296685128769      5.62196781130241     -0.71979243350274
  O   0.70434836551400      6.30460891507299     -1.24161766330312
  H   0.86350698701026      7.08483722091633     -0.66254011632711
  H   -0.37749381207807      6.81279244306603     -2.27788591945378
  O   -1.12798675709693      7.19399431387516     -2.81716343267001
  H   -1.90921108871409      7.09014381849749     -2.22000499746379
  H   -0.62338315641453      4.40243543629003     -4.07565004453771
  O   -1.44955236643846      4.89736020815520     -4.26546457918486
  H   -1.35803978824089      5.71055755407546     -3.73960290302722
  H   -5.20612864429379      5.69679955769267     -5.55952591394472
  O   -4.55927539588764      4.96050752137699     -5.55885156586853
  H   -3.82619167917826      5.19105862154907     -6.16393039233292
  H   -0.63995385860472      8.84362114258961     -2.19047938593124
  O   -0.50107635564779      9.68586989438399     -1.71144783499890
  H   0.21241592918131      9.47984300529110     -1.07828898803754
  H   -1.81915497443494      6.21657229722573     -6.98854550455651
  O   -2.15997382595785      5.35897112377807     -6.72350969974450
  H   -1.79585131053154      5.22714641224877     -5.79656502544948
  H   -2.24194765789550     10.31466812336047     -3.29025815189563
  O   -2.88617674968502      9.92570067546452     -3.89254913025485
  H   -2.33937819440183      9.44483170701362     -4.54131783773292
  H   -4.39054839676133      8.90923769421182     -3.37817942158279
  O   -5.12660409806916      8.36139779402704     -3.05127828428823
  H   -4.73668893340463      7.86697380285283     -2.31592865061714
  O   -1.20590801527899      8.20200585604909     -5.45050050111723
  H   -1.03278485822718      7.78596194815174     -4.58459100202470
  H   -0.37649104701840      8.63001489430841     -5.68381150575688
