9

H     6.687990    -5.905280     2.679804
O     6.784616    -5.232160     3.386250
H     7.646591    -5.369486     3.806547
H     9.179363    -3.849488     4.035309
O     9.161162    -4.545099     4.712144
H     8.674222    -4.121405     5.437546
N     11.937726    -5.047332     5.464410
H     11.006902    -4.924500     5.217317
H     12.129080    -5.953564     5.206405
