33
Coordinates from ORCA-job grain_mol_opt.QMRegion
  H   -4.59990084028646      0.48219882196274      2.13093670925148
  O   -4.97152665618317     -0.42806470710766      2.15310503695882
  H   -4.50331847985361     -0.93960239627225      1.47908050886121
  H   -4.84315640409285      2.53819294132075      1.27394774495082
  O   -4.20744859511248      2.14964244069907      1.91008261965795
  H   -3.36066540842516      2.14540570014840      1.39667959788914
  H   -4.33356533984852      2.79377081474430      3.50828716838425
  O   -4.36324990145158      2.92406437484146      4.48043872312467
  H   -4.46143989324800      2.01297427154183      4.84545649577982
  H   -3.71019811177106     -0.00711428862030      4.94946846663350
  O   -4.29211716721162      0.47673354681835      5.58804353309231
  H   -4.96994355392484     -0.18334957468833      5.85029682331375
  H   -3.92086966727604      1.14274229969038      7.06505064752151
  O   -3.80982840737518      1.65513969443734      7.89907170073478
  H   -4.69960476964802      2.05007478355505      8.08682008892326
  H   -6.41042324254431     -0.19151204170109      1.03340968202681
  O   -6.68722396108333     -0.23127503752137      0.10035413581331
  H   -7.57307309463376     -0.60282596070515      0.05480576093964
  H   -6.21135189179686      3.43923475540329      7.37439079740073
  O   -6.14901434943861      2.88069034199003      8.17685613203586
  H   -6.78695419350567      2.15361755598710      8.01347123366924
  H   -5.47798997665483      3.89793429459013      5.19522199621226
  O   -6.22148472544255      4.27346885632465      5.74326552556967
  H   -6.16590220169079      5.22752476400848      5.63878324314941
  H   -7.20786446474355     -0.04894876279520      7.10862979250098
  O   -7.66563371340137      0.79463609828075      7.23674511114393
  H   -7.79224431119818      1.13838542211284      6.33187570008982
  H   -5.20164794817964     -2.01720985876070      6.92512552124162
  O   -5.90766752125794     -1.51989973722721      6.47317612361749
  H   -5.91600735626906     -1.91472079681284      5.57247439189859
  O   -7.67484748735143      2.11866154681908      4.72376795446373
  H   -7.38574345067030      3.02569874332818      4.94289547332509
  H   -8.44222528000021      2.22083938870703      4.15626609402177
