603

H     0.210181     3.013963    -0.682969
O     0.735433     2.347475    -1.176297
H     1.673855     2.480166    -0.903417
H    -0.049931    -1.330891     3.140035
O     0.341252    -0.630171     2.596095
H    -0.138619     0.182253     2.829477
H    -2.386189     2.383491    -0.540390
O    -2.173145     1.911301     0.282148
H    -2.187811     0.964022     0.054736
H    -4.643025     0.506363     2.173948
O    -4.954911    -0.428825     2.186622
H    -4.451384    -0.902179     1.516267
H     0.087627    -0.327720     0.941831
O    -0.109292    -0.092575     0.014654
H     0.223372     0.806798    -0.105093
H    -0.115498    -3.602660     3.764770
O    -0.399476    -2.775373     4.185641
H     0.245398    -2.599699     4.887478
H    -4.874446     2.490399     1.325986
O    -4.233084     2.081785     1.939604
H    -3.390611     2.068835     1.426358
H    -3.242556     3.870726    -2.213488
O    -2.502775     3.275847    -1.983685
H    -2.143435     2.991330    -2.844126
H    -0.092839    -3.824987     0.483763
O     0.248590    -3.012186     0.908734
H    -0.539244    -2.524083     1.218437
H    -2.349335    -1.571092     2.457093
O    -2.156374    -2.035597     1.615937
H    -2.420404    -1.449995     0.886933
H     2.099810    -1.451724    -1.134784
O     2.331934    -1.707452    -0.217777
H     1.543275    -2.136527     0.164653
H    -1.376860     1.795959     1.905771
O    -1.464686     1.395825     2.781150
H    -1.454351     2.107211     3.447359
H     0.241795    -2.716401    -1.587088
O    -0.518540    -2.110583    -1.636346
H    -0.341085    -1.382299    -1.004106
H    -3.406046    -2.959330    -0.407558
O    -2.681898    -3.445443    -0.823814
H    -1.979355    -2.807974    -1.046453
H     2.794358     0.114093     2.923487
O     2.894125    -0.071571     3.884669
H     2.982129     0.820877     4.291845
H    -3.532405     6.348706    -0.540225
O    -3.296267     7.013405    -1.239077
H    -3.157911     7.858276    -0.767310
H     3.921262     0.577352     1.176085
O     2.971872     0.389830     1.293264
H     2.737168    -0.360124     0.710077
H    -5.763705     0.804379    -1.612352
O    -4.854428     1.134460    -1.484218
H    -4.968966     1.961815    -0.971702
H    -1.210598     5.369149     2.210395
O    -1.832221     4.619329     2.092666
H    -1.908735     4.199549     2.954716
H     3.504575     2.756069     0.419780
O     3.255829     2.713583    -0.519166
H     3.591982     1.873409    -0.871791
H     1.529643    -4.698253    -2.279141
O     1.592570    -3.929782    -1.692782
H     2.385964    -3.463403    -2.041243
H    -0.902505    -0.101865    -2.559486
O    -0.268252     0.551703    -2.881161
H    -0.011208     1.134649    -2.143554
H     1.737095    -4.670044    -0.247598
O     1.838839    -5.333278     0.478780
H     1.331222    -6.113076     0.193195
H    -1.195971    -3.287775    -2.895192
O    -1.015982    -3.970533    -3.554580
H    -0.889706    -4.817304    -3.086588
H    -2.770721     3.270052     4.701359
O    -1.789412     3.270160     4.667026
H    -1.495209     2.868843     5.502974
H     0.965053     5.010932     4.075181
O     0.018132     5.239225     4.128133
H    -0.450769     4.433847     4.384624
H    -1.686861    -4.667669    -0.403137
O    -0.933160    -5.217010    -0.101834
H    -1.307353    -5.873124     0.496023
H    -3.919599     5.803157    -2.596489
O    -4.266844     4.968033    -2.927360
H    -4.112810     4.935770    -3.895847
H    -2.396103    -3.718153     1.920186
O    -2.408633    -4.623740     2.294119
H    -1.468940    -4.855236     2.438483
H    -4.664128    -3.011749    -2.913317
O    -3.809787    -3.238065    -3.319111
H    -3.477563    -4.035567    -2.860985
H     0.355882     1.350407     4.607538
O     0.860670     2.111802     4.275300
H     0.906024     2.770649     4.982616
H    -4.613728    -5.206563    -1.591265
O    -5.315401    -4.854597    -1.015979
H    -5.103562    -5.212755    -0.133422
H     2.401995    -6.408095    -4.089925
O     2.063262    -6.107203    -3.229702
H     2.502202    -6.700722    -2.577286
H     0.498172    -3.390503    -4.023679
O     1.299424    -3.017225    -4.443880
H     0.978722    -2.647072    -5.292831
H     1.995528    -1.771611     2.969055
O     2.150319    -2.702252     2.748909
H     1.463554    -2.911963     2.081468
H    -2.988654    -1.833074    -3.222330
O    -2.569466    -0.945123    -3.154359
H    -3.227122    -0.301512    -3.473955
H    -3.188110     4.942288     1.080140
O    -3.971403     5.313399     0.626611
H    -4.388528     5.868488     1.333815
H     0.889341     2.232617     2.585193
O     0.989470     2.229259     1.613909
H     1.719461     1.610184     1.448232
H     0.189506     5.639801    -0.757619
O     0.708736     6.304316    -1.265355
H     0.847827     7.103885    -0.708434
H     0.338133     7.013080     2.593983
O    -0.022883     6.632303     1.776236
H     0.643894     5.965193     1.513128
H    -2.459410     0.179905     3.331593
O    -2.676621    -0.636786     3.834400
H    -1.916677    -0.672543     4.457005
H    -0.873736     0.520649     6.016116
O    -0.597982     0.002026     5.241472
H     0.117886    -0.598176     5.527806
H     0.748241    -5.016112     1.953129
O     0.216031    -5.129958     2.762357
H     0.362679    -6.049255     3.034211
H    -2.280781    -7.946715     0.634901
O    -1.868810    -7.455624     1.372166
H    -2.601788    -7.035581     1.837977
H    -0.385424     6.847448    -2.322533
O    -1.133632     7.265495    -2.820527
H    -1.922920     7.135176    -2.256820
H    -1.108912     4.285133     0.572108
O    -0.736382     4.348714    -0.323966
H    -1.442536     4.105946    -0.956641
H    -4.398106     2.705018     3.503336
O    -4.396311     2.873384     4.468262
H    -4.476839     1.989381     4.875728
H     2.059296    -3.600811     4.227066
O     2.001416    -4.079685     5.077065
H     2.503620    -3.540939     5.710447
H     4.722036    -3.194817     0.820373
O     4.559510    -3.117454    -0.144928
H     3.698853    -2.642852    -0.227685
H    -2.700684    -0.774491    -1.363233
O    -3.027705    -0.509006    -0.487083
H    -3.830574     0.014276    -0.691915
H    -1.595244    -0.777104    -4.642746
O    -1.089199    -0.557570    -5.446083
H    -0.381489     0.040966    -5.160108
H     1.819977    -1.721269    -3.392085
O     1.909770    -0.977115    -2.764983
H     1.131508    -0.400813    -2.895714
H     3.692774    -3.138782     2.534862
O     4.652589    -3.364563     2.459151
H     4.719509    -4.321365     2.590925
H     3.457013    -6.143938     3.094279
O     3.802441    -5.961253     2.185336
H     3.073719    -5.587135     1.652448
H    -3.330777     1.587673    -4.183672
O    -4.173411     1.112949    -3.993336
H    -4.391511     1.256134    -3.036527
H    -5.077980     4.108952     0.065898
O    -5.513071     3.241254    -0.038163
H    -6.444002     3.357158    -0.320122
H     6.759507    -1.171898    -1.379902
O     5.987611    -1.027106    -0.826220
H     5.572235    -1.896760    -0.631480
H     4.626138    -3.167554    -2.489792
O     3.755541    -3.000747    -2.901866
H     3.760789    -3.617018    -3.660395
H     4.464718    -2.308048     5.606121
O     4.121908    -2.778198     6.396672
H     4.464197    -3.680284     6.314891
H    -0.755272     6.306150     5.077247
O    -1.353891     6.878453     5.616794
H    -1.371079     7.756375     5.176985
H     4.719147    -0.135817    -1.479536
O     3.948554     0.403292    -1.739352
H     3.259012    -0.199040    -2.072346
H    -0.740563     4.509152    -4.038742
O    -1.525557     5.049370    -4.245115
H    -1.377225     5.915983    -3.821384
H     0.666901     3.191570    -2.662666
O     0.672787     3.570049    -3.570274
H     0.722438     2.808115    -4.157567
H    -5.346726    -5.235484     1.775374
O    -4.646017    -5.827545     1.423439
H    -3.809459    -5.403406     1.690267
H     7.905933    -1.674518    -4.050689
O     7.646746    -1.363778    -3.150286
H     7.157641    -0.520958    -3.305704
H     3.737395    -5.065013    -5.312382
O     4.499762    -4.694276    -4.828232
H     4.883954    -5.408694    -4.286733
H    -3.762897    -0.024963     4.925537
O    -4.364062     0.435895     5.559594
H    -5.022357    -0.224503     5.850696
H     3.512348    -5.932619    -0.559434
O     4.394985    -5.688499    -0.850817
H     4.463842    -4.724571    -0.715875
H     5.020491    -0.329885    -4.173284
O     4.487501    -1.042749    -4.563630
H     4.163537    -1.628124    -3.846951
H    -1.159105     1.555653    -3.944463
O    -1.812160     2.174872    -4.327524
H    -1.457090     2.509305    -5.173905
H     4.930463    -6.318148    -2.339784
O     5.258518    -6.645094    -3.206235
H     6.080760    -7.121129    -3.023732
H     8.777797    -5.074096    -2.941320
O     8.088379    -5.495305    -2.383184
H     8.126931    -6.452358    -2.487903
H     2.341037     4.708130     0.448904
O     1.762811     4.686006     1.220787
H     1.408204     3.764643     1.296199
H    -4.384351    -2.676659     4.218583
O    -5.279445    -2.340720     4.016726
H    -5.146106    -1.558098     3.442236
H    -5.814360    -3.238555     1.303094
O    -6.273779    -3.798681     1.971152
H    -6.087977    -3.363515     2.822277
H     1.696545     3.442695     6.858055
O     1.071246     3.956068     6.324973
H     0.288273     4.106261     6.897522
H     5.030508    -2.176555     3.599226
O     5.047600    -1.461334     4.265698
H     4.234192    -0.906228     4.110296
H     2.436733    -5.593596     4.816751
O     2.813829    -6.478177     4.549998
H     2.067323    -7.061088     4.389229
H     2.294506    -4.510168    -6.812954
O     2.132059    -5.000997    -5.997424
H     1.859631    -4.314306    -5.340862
H     6.477194    -4.097478    -0.527058
O     7.229545    -4.500581    -0.062276
H     7.739161    -4.919841    -0.783893
H    -1.718177     4.449959     7.700070
O    -0.819190     4.550442     8.084658
H    -0.641971     5.510319     8.111239
H    -5.122427     5.665474    -5.594016
O    -4.511606     4.904540    -5.615455
H    -3.755858     5.122577    -6.182046
H     3.307252    -2.518608    -8.454576
O     3.221617    -3.051461    -7.653147
H     4.098800    -3.026693    -7.225658
H    -0.673797     8.809297    -2.272369
O    -0.553675     9.637195    -1.751978
H     0.209621     9.464763    -1.176054
H     2.091566    -0.934026     5.199195
O     1.522635    -1.465851     5.785141
H     1.612864    -1.120556     6.682898
H     5.230493    -2.015777    -5.709757
O     5.579491    -2.780055    -6.232450
H     5.308498    -3.571871    -5.716256
H     5.738468    -5.223010     4.664204
O     5.213380    -5.140530     5.489534
H     4.496513    -5.777430     5.404693
H    -3.955588     1.099388     7.000857
O    -3.764524     1.574217     7.845318
H    -4.641945     1.956473     8.107292
H    -1.867567     9.589924    -0.737857
O    -2.727181     9.459311    -0.263050
H    -3.341037     10.086052    -0.649541
H    -5.947387     4.653513    -2.937835
O    -6.855799     4.531600    -3.281580
H    -6.763221     3.830821    -3.960056
H     0.026720    -7.153918    -1.186772
O     0.406127    -7.607120    -0.380733
H    -0.290730    -7.496860     0.281055
H    -7.632852     3.747199    -1.973545
O    -7.890851     3.157862    -1.234157
H    -7.745406     2.250320    -1.575877
H     4.000161    -0.910407     6.973118
O     4.004598     0.053653     6.964522
H     4.815904     0.347990     6.533992
H     2.256051     5.787150    -1.180509
O     3.192618     5.497262    -1.067040
H     3.370900     4.959862    -1.861737
H     6.596333    -5.924151     0.647276
O     6.229491    -6.661833     1.181472
H     5.321932    -6.391165     1.400185
H    -3.862382     4.681864     7.780923
O    -3.294241     4.222061     7.120993
H    -3.484887     3.277914     7.229725
H     5.817576    -7.935489     0.101369
O     5.533874    -8.628063    -0.531337
H     4.727697    -8.291248    -0.964135
H    -0.542155     2.006944     7.687262
O    -1.175130     1.939656     6.952110
H    -2.043215     1.795773     7.348872
H    -6.364146    -0.165928     1.055762
O    -6.681826    -0.250845     0.142343
H    -7.599983    -0.523956     0.158001
H    -5.341114    -3.103179    -0.601479
O    -5.090036    -2.400892     0.024946
H    -5.663664    -1.630072    -0.160792
H     4.316744     5.573498     0.317870
O     4.650357     5.673066     1.223324
H     3.954619     6.180923     1.676514
H    -9.018877    -1.793235    -2.262465
O    -8.471567    -1.591041    -1.476093
H    -8.595993    -2.329612    -0.839986
H    -5.520685     3.441228    -5.529197
O    -6.035044     2.728057    -5.115078
H    -5.366159     2.144130    -4.703106
H     3.200566    -0.886173    -5.669383
O     2.344362    -1.008913    -6.133601
H     2.432978    -1.856223    -6.609751
H     8.136044    -1.329694    -6.045663
O     8.147218    -2.193989    -5.589806
H     7.292898    -2.597236    -5.841594
H     7.633228     1.009786    -6.322809
O     7.447237     0.160989    -6.736335
H     6.466085     0.107677    -6.773030
H    -7.827803    -3.743091     0.916740
O    -8.506412    -3.636196     0.232790
H    -8.406076    -4.394051    -0.370971
H    -2.419952     8.706633     1.299261
O    -2.266276     8.117351     2.051180
H    -1.494203     7.567661     1.826764
H    -4.446544     6.394227     3.500213
O    -4.618773     6.820721     2.644392
H    -3.857887     7.410077     2.505346
H     3.405672     3.445804    -3.583566
O     3.248813     4.414218    -3.487847
H     2.283716     4.475667    -3.595378
H    -6.092407    -1.641630    -3.451738
O    -6.171795    -2.221556    -2.667907
H    -6.957817    -1.919198    -2.159502
H     6.486224     1.046111     4.727789
O     6.089866     1.581042     5.432243
H     6.273600     2.501392     5.143322
H     1.371477     1.717894    -5.830553
O     1.180343     1.120079    -5.076829
H     1.546012     0.258680    -5.349207
H    -2.475128     2.916926     10.480590
O    -2.259606     2.010737     10.205055
H    -2.857532     1.810333     9.473079
H     7.650847    -0.494322     3.068102
O     6.898210     0.077413     3.238450
H     6.209032    -0.525807     3.617811
H    -5.595068    -8.106463    -0.723528
O    -4.859972    -8.170698    -0.077814
H    -4.877150    -7.354646     0.445475
H    -5.160778    -0.148554    -4.723013
O    -5.775324    -0.862327    -4.962958
H    -6.615319    -0.423808    -5.160238
H     1.905725    -0.198291    -7.526818
O     1.702291     0.274724    -8.369494
H     2.279474    -0.127542    -9.023990
H     4.891669    -1.379132    -9.319725
O     3.965567    -1.152712    -9.600578
H     3.944264    -1.271181    -10.549544
H     7.594990    -2.570202     4.181580
O     7.739809    -2.603872     3.221707
H     7.250906    -3.396895     2.948907
H     6.765043    -5.894213     2.659585
O     6.820207    -5.222027     3.364463
H     7.697639    -5.300938     3.781208
H    -1.832870     8.915959     3.503254
O    -1.585654     9.219603     4.402089
H    -2.434632     9.348755     4.858180
H    -7.379879     1.530599    -5.254348
O    -7.951359     0.783918    -5.009380
H    -8.854812     1.179555    -4.932835
H     6.945246    -1.063558    -8.419879
O     6.365205    -1.785868    -8.684200
H     6.140046    -2.238653    -7.853195
H    -1.684490     6.227863    -7.021405
O    -2.078886     5.400608    -6.748797
H    -1.829629     5.269357    -5.785556
H     0.012817     3.276409     9.019053
O     0.213063     2.356654     9.271825
H    -0.583920     2.089104     9.778754
H     6.783833    -2.769647    -2.723211
O     6.256877    -3.516323    -2.381531
H     6.727195    -4.324915    -2.632379
H    -4.050905    -3.097532    -4.956212
O    -4.205852    -2.983377    -5.920623
H    -4.757164    -2.193099    -5.975316
H     1.995615     2.158236     8.458159
O     2.658557     2.273478     7.767648
H     3.083833     1.404991     7.651171
H    -6.870553    -5.243210    -1.411525
O    -7.786327    -5.512786    -1.654873
H    -7.921814    -5.111579    -2.538045
H    -3.824510     5.213822     5.698473
O    -3.794825     5.982961     5.108486
H    -2.862093     6.281141     5.202828
H    -7.867313     0.043284    -1.972296
O    -7.380192     0.769601    -2.384286
H    -7.608992     0.759594    -3.337524
H     5.856997     0.132335     0.398577
O     5.631271     0.850771     1.021610
H     6.143578     0.657101     1.833460
H    -6.203977     3.257661     7.395685
O    -6.073362     2.738191     8.223139
H    -6.671473     1.975253     8.134120
H     2.707785    -8.105924    -0.696159
O     3.093531    -8.000515    -1.581849
H     2.753381    -8.737065    -2.133294
H    -2.717570    -3.975626    -6.213861
O    -1.959107    -4.536814    -5.986089
H    -1.684974    -4.251856    -5.086815
H    -5.635583     3.713861     5.308713
O    -6.285390     4.106579     5.927489
H    -6.126387     5.051409     5.914854
H    -0.942163    -7.122521    -3.186253
O    -0.458346    -6.471524    -2.634760
H     0.430973    -6.368397    -3.063993
H     4.458793     2.004894     5.120474
O     3.515836     2.239148     5.000984
H     3.132289     2.254851     5.883231
H     4.114533     4.642853     6.297472
O     4.193160     5.373809     5.680089
H     3.625537     5.132927     4.909326
H     2.772774     3.601749     3.917470
O     2.591841     4.541505     3.753620
H     2.471198     4.641796     2.787471
H     9.411264     0.228798    -1.085837
O     8.604919     0.387356    -0.591360
H     8.432796    -0.433104    -0.099834
H    -2.095672     5.276949     10.651477
O    -2.815034     4.645115     10.882131
H    -3.034212     4.820639     11.797451
H     8.003720    -3.000519     0.308395
O     8.420799    -2.152398     0.564838
H     8.356613    -2.149219     1.527177
H     5.378346     3.659842     3.518744
O     6.033580     3.925266     4.185945
H     5.619217     4.641793     4.688533
H    -4.203030     4.973115     9.786166
O    -4.836680     5.122696     9.064356
H    -5.446303     4.372262     9.061414
H    -6.980497    -3.517060    -3.497497
O    -7.599501    -4.129523    -3.946656
H    -7.077194    -4.570188    -4.648886
H     0.030144     6.093732     10.771645
O    -0.836111     6.421374     10.525255
H    -0.722688     6.854233     9.659792
H     2.600492     1.493182    -4.114775
O     3.477750     1.848504    -3.875308
H     3.800034     1.333739    -3.105712
H    -6.949564    -0.273364     7.213519
O    -7.460158     0.503280     7.495146
H    -8.084972     0.685261     6.792122
H    -2.399183    -9.711501    -0.793947
O    -2.590617    -8.791491    -1.006454
H    -3.544906    -8.640379    -0.756447
H    -10.063863     3.028753    -4.897021
O    -10.177111     2.110368    -4.617763
H    -10.392943     2.191816    -3.667864
H    -2.036302    -3.056496     4.601408
O    -2.908112    -3.501991     4.671654
H    -2.902324    -4.116564     3.913136
H    -0.115373    -8.070246     2.654107
O     0.737304    -7.807194     3.017499
H     1.418625    -8.137776     2.407394
H     6.739076    -2.378587     6.375051
O     7.188881    -3.086983     5.909786
H     6.561415    -3.823818     5.873084
H    -5.242691    -2.051211     6.934304
O    -5.920628    -1.554631     6.451251
H    -5.904409    -1.930450     5.541666
H     0.840122     3.028515    -7.120047
O     1.758804     2.700704    -7.176539
H     1.747509     1.954476    -7.804022
H    -3.964525     8.713726     6.679573
O    -3.962300     8.712901     5.722211
H    -4.084946     7.785460     5.453087
H    -2.079717     10.292728    -2.729340
O    -2.982419     10.471202    -3.029818
H    -2.914098     11.106504    -3.741861
H     9.447471    -4.054757     4.022547
O     9.166218    -4.734251     4.642968
H     8.739864    -4.263210     5.369808
H    -0.699408    -5.995396    -5.875831
O     0.004896    -6.552307    -5.529269
H     0.840353    -6.097055    -5.755353
H     1.815096     8.262394     0.667176
O     1.509922     8.584209    -0.209677
H     2.324008     8.626330    -0.740762
H     3.502831     2.934298    -6.669753
O     4.331775     2.646680    -6.261309
H     4.088091     2.370846    -5.352753
H     3.725750     7.121794    -1.230314
O     3.928020     8.058580    -1.442244
H     4.296733     8.005427    -2.335961
H     4.409982     0.001616    -7.923873
O     4.786446     0.148360    -7.054229
H     4.601652     1.079485    -6.809987
H     6.042307     1.937706    -0.485419
O     6.606370     2.133445    -1.247355
H     7.432976     1.656809    -1.054689
H     6.741546    -8.424550    -1.634388
O     7.372698    -8.205975    -2.372578
H     7.731746    -9.038440    -2.675290
H    -5.263380    -5.820031    -5.422664
O    -5.883161    -5.148573    -5.733578
H    -5.335192    -4.378915    -5.972261
H     0.679876     7.146021     7.602781
O    -0.221529     7.168979     7.962879
H    -0.777677     7.183464     7.145825
H    -8.870998    -2.878061    -4.110603
O    -9.393437    -2.071159    -3.941197
H    -9.110912    -1.405073    -4.571622
H    -2.374853    -6.023434    -2.156513
O    -3.244979    -5.721693    -2.433505
H    -3.434067    -6.103211    -3.316692
H    -2.948944    -5.924290    -5.426752
O    -3.542330    -6.536193    -4.950293
H    -3.053525    -7.354772    -4.791783
H    -1.389308     3.714474    -6.985814
O    -0.846235     2.960354    -6.715955
H    -1.080314     2.175144    -7.267149
H    -0.191772     0.411381    -8.225225
O    -1.088016     0.643803    -7.940182
H    -1.261496     0.117387    -7.143790
H    -10.420516     4.001506    -2.731116
O    -10.484625     3.221928    -2.163835
H    -9.654894     3.197925    -1.655582
H     4.584666     4.076157     1.714997
O     4.380875     3.153530     1.991995
H     5.099133     2.581653     1.708750
H     6.496726     1.409395    -4.231352
O     6.196614     0.783355    -3.537635
H     6.226525     1.278266    -2.693535
H     9.659745    -2.207785    -0.949023
O     9.934832    -1.990318    -1.848447
H     9.132792    -1.654757    -2.291202
H     9.998914    -3.298139    -3.120640
O     9.732319    -3.950657    -3.795125
H     9.337259    -3.444049    -4.515351
H    -7.645516    -8.621405    -1.688915
O    -6.911508    -8.020615    -1.808347
H    -7.295366    -7.111111    -1.797377
H     4.155084     6.083964    -3.823718
O     4.813599     6.787416    -3.737236
H     5.651700     6.336348    -3.601910
H     0.180744    -8.135148    -5.401662
O     0.227832    -9.111002    -5.242105
H     0.495050    -9.482326    -6.087648
H    -2.302033    -8.741372    -2.872686
O    -2.005461    -8.396406    -3.735817
H    -1.470331    -9.062204    -4.185311
H     1.300908    -10.231058    -2.489665
O     1.933928    -9.919293    -3.162945
H     1.364126    -9.608948    -3.894933
H     6.839740     3.344157    -4.583634
O     6.899539     2.666550    -5.284875
H     6.105668     2.797964    -5.825440
H    -3.528667    -3.765188     7.708507
O    -3.644473    -2.976729     7.179802
H    -3.393939    -3.213595     6.260980
H    -0.610146    -3.372183    -6.739089
O     0.018086    -2.638611    -6.744390
H    -0.467315    -1.865277    -6.403524
H     0.665536     0.430717     8.742408
O     0.674106    -0.283672     8.101301
H    -0.247793    -0.574064     8.014416
H    -5.844951     7.335974    -4.245860
O    -6.345736     6.715988    -4.807513
H    -6.629957     5.983301    -4.217212
H    -4.295304     9.075321    -3.255913
O    -4.827802     8.276927    -3.150464
H    -4.417167     7.797927    -2.412510
H    -9.717190     5.751296    -4.640098
O    -10.247321     4.944373    -4.477231
H    -11.128778     5.142097    -4.795682
H     2.767781     6.498284     6.139215
O     1.807423     6.590844     6.237967
H     1.467046     5.676554     6.134098
H     4.791347     8.546788     0.084983
O     5.109134     8.547072     1.005799
H     5.519965     7.684362     1.134771
H     4.164760    -7.451917    -4.338697
O     3.396234    -7.738818    -4.866406
H     3.132990    -8.587657    -4.505049
H     0.366930     8.636766     4.237943
O     1.046725     7.994783     4.008490
H     1.275638     7.501874     4.822377
H     5.236729     4.197543    -3.164289
O     6.198315     4.170855    -3.112195
H     6.409930     3.589339    -2.365256
H    -2.549085    -1.583281     7.563433
O    -2.040639    -0.788930     7.783656
H    -2.667732    -0.164989     8.159649
H    -9.040788     7.893227    -4.137850
O    -8.975978     7.309645    -4.895264
H    -8.018434     7.149640    -5.031675
H     3.769170    -8.929782     1.204512
O     3.031752    -8.316836     1.289566
H     3.460124    -7.478981     1.592779
H     3.574554     8.164198     1.830395
O     2.786544     7.597154     1.942750
H     2.339723     7.830527     2.769222
N     0.125415    -10.248551    -0.991695
H     0.258263    -9.302530    -0.728789
H     0.524688    -10.766643    -0.286819
