36
Coordinates from ORCA-job grain_mol_opt.QMRegion
  H   -5.02821031361741      5.72884097235592     -5.59605354810910
  O   -4.47988011303509      4.91839988197771     -5.63611864742606
  H   -3.68629493877422      5.11480559179549     -6.16936927701669
  H   -5.89421741743448      4.66586603198087     -2.94365538524417
  O   -6.80423743228310      4.52288576775411     -3.29272188107029
  H   -6.63479332488891      3.80296561497376     -3.94519977427874
  H   -7.59102667021556      3.73094511159653     -1.92853870999836
  O   -7.94888882905337      3.21218139491935     -1.17652551182968
  H   -7.80224292574746      2.28174406223241     -1.46903206570056
  H   -5.40147851694807      3.39180037179685     -5.57419759090041
  O   -5.97121681609135      2.68936251018875     -5.19988380934917
  H   -5.32715514616358      2.09580420086667     -4.74427855299494
  H   -7.44686893648894      1.45190690469072     -5.24419398448662
  O   -7.97062928668291      0.71035568401663     -4.90612837385329
  H   -8.91712901580680      1.04915354319911     -4.89529257411979
  H   -7.85949546870199     -0.04002176062291     -1.85930367509974
  O   -7.43166368863473      0.74231545646216     -2.24504630969594
  H   -7.61938390210913      0.71617965039993     -3.21332578927032
  H   -10.02466705450624      2.55680130304066     -5.46794254673802
  O   -10.30831768507977      1.83685064168474     -4.87234034610347
  H   -10.39148427144179      2.29231259034339     -4.00278158484298
  H   -10.29235577355171      4.27832360185232     -3.00801778884404
  O   -10.42903921526154      3.41746571326363     -2.58224996041494
  H   -9.67779881699621      3.33546717803516     -1.96308581524474
  H   -5.71964925341624      7.37836796187689     -4.20512253721771
  O   -6.25951348479396      6.81517557050590     -4.80411320718369
  H   -6.54864148290975      6.05851014611023     -4.24000007705779
  H   -9.58781100940298      6.57024645536758     -4.30295385801242
  O   -10.07409606563601      5.71241435503544     -4.38351540356695
  H   -10.92310027750787      5.95082640415441     -4.76859754916422
  H   -8.52080133617869      8.42568107636807     -3.51024058348328
  O   -8.67427211542479      8.03713524002628     -4.37742466605339
  H   -7.78651589824749      7.70496600797181     -4.64536091691443
  O   -8.99133810321975      3.93340942749576     -6.29050623490661
  H   -9.21037334409882      4.62855611919717     -5.63851488878295
  H   -8.04733629652871      3.77828294938271     -6.18120241154741
