603

H     0.207663     3.032979    -0.671931
O     0.729666     2.363745    -1.164717
H     1.669059     2.493409    -0.892850
H    -0.062336    -1.301992     3.163937
O     0.328724    -0.601274     2.619687
H    -0.150272     0.212415     2.849282
H    -2.391258     2.411799    -0.523859
O    -2.180430     1.941411     0.300275
H    -2.195549     0.993585     0.074918
H    -4.650857     0.550059     2.196887
O    -4.965714    -0.384145     2.214261
H    -4.465171    -0.861740     1.544531
H     0.075888    -0.304927     0.961722
O    -0.125707    -0.068935     0.035846
H     0.214900     0.826978    -0.087438
H    -0.138549    -3.570038     3.791807
O    -0.416934    -2.740519     4.214256
H     0.234099    -2.568917     4.911482
H    -4.876927     2.532581     1.344996
O    -4.236363     2.123637     1.959302
H    -3.394606     2.105922     1.444485
H    -3.244899     3.896935    -2.200746
O    -2.507247     3.299914    -1.969916
H    -2.149407     3.011842    -2.829810
H    -0.113597    -3.802283     0.517544
O     0.226146    -2.984057     0.934255
H    -0.561083    -2.497587     1.245691
H    -2.366226    -1.534467     2.483252
O    -2.177441    -2.001064     1.643446
H    -2.436689    -1.415278     0.912975
H     2.080630    -1.441507    -1.112982
O     2.313386    -1.693091    -0.195442
H     1.525204    -2.121281     0.189574
H    -1.380476     1.826557     1.921958
O    -1.471425     1.430413     2.798980
H    -1.452236     2.143567     3.462756
H     0.216118    -2.702498    -1.557960
O    -0.540179    -2.091479    -1.611132
H    -0.359627    -1.364089    -0.978808
H    -3.427795    -2.924402    -0.373751
O    -2.710563    -3.417156    -0.793644
H    -2.001009    -2.786717    -1.014701
H     2.786637     0.136570     2.939820
O     2.884539    -0.046966     3.901281
H     2.980054     0.845639     4.307780
H    -3.524336     6.380851    -0.534217
O    -3.287290     7.042728    -1.235333
H    -3.144964     7.888448    -0.766197
H     3.912033     0.589287     1.189608
O     2.961692     0.406805     1.307035
H     2.724496    -0.346023     0.728321
H    -5.775720     0.841523    -1.587721
O    -4.865215     1.168865    -1.461886
H    -4.975941     1.997881    -0.951240
H    -1.201644     5.401135     2.216119
O    -1.826924     4.653298     2.102707
H    -1.902454     4.237026     2.966194
H     3.502084     2.767569     0.426900
O     3.251137     2.722854    -0.511568
H     3.584547     1.880534    -0.861819
H     1.498363    -4.696446    -2.238518
O     1.563187    -3.918514    -1.666294
H     2.357317    -3.457549    -2.018927
H    -0.917276    -0.085487    -2.536797
O    -0.283923     0.566849    -2.862648
H    -0.022271     1.150202    -2.126921
H     1.709401    -4.683090    -0.167509
O     1.816892    -5.318893     0.576128
H     1.354208    -6.130933     0.281344
H    -1.221111    -3.266886    -2.865021
O    -1.048643    -3.950832    -3.525406
H    -0.920835    -4.797324    -3.055975
H    -2.762839     3.307322     4.725717
O    -1.781713     3.300974     4.692001
H    -1.482810     2.909554     5.529262
H     0.974201     5.042931     4.080001
O     0.026871     5.271214     4.131735
H    -0.438943     4.466994     4.396131
H    -1.720756    -4.649888    -0.354398
O    -0.954876    -5.189384    -0.069254
H    -1.301149    -5.877012     0.508880
H    -3.915785     5.830615    -2.588250
O    -4.266649     4.995920    -2.916445
H    -4.113400     4.960231    -3.884907
H    -2.417861    -3.686769     1.953100
O    -2.435762    -4.589186     2.332914
H    -1.495492    -4.828073     2.469708
H    -4.690433    -2.982339    -2.878960
O    -3.838539    -3.215020    -3.286252
H    -3.506470    -4.008287    -2.821159
H     0.358838     1.384545     4.622004
O     0.852958     2.148950     4.285772
H     0.914761     2.802150     4.998071
H    -4.647165    -5.171035    -1.549306
O    -5.347978    -4.817180    -0.974496
H    -5.133348    -5.171258    -0.090642
H     2.331012    -6.482634    -4.027143
O     1.994981    -6.153273    -3.173426
H     2.430870    -6.726243    -2.510351
H     0.470194    -3.380606    -3.993490
O     1.272050    -3.013554    -4.418048
H     0.951267    -2.643028    -5.266510
H     1.979819    -1.746594     2.989207
O     2.132534    -2.678368     2.774038
H     1.446378    -2.892407     2.107566
H    -3.011058    -1.811053    -3.193475
O    -2.589410    -0.924275    -3.129266
H    -3.245376    -0.279293    -3.449318
H    -3.182563     4.977957     1.089588
O    -3.965501     5.349931     0.636209
H    -4.379530     5.908933     1.342221
H     0.888503     2.260302     2.595972
O     0.985977     2.251829     1.624701
H     1.714570     1.630451     1.460407
H     0.195251     5.658932    -0.754044
O     0.715264     6.320425    -1.264804
H     0.858554     7.120905    -0.710154
H     0.352189     7.040845     2.593679
O    -0.011792     6.658669     1.777797
H     0.652940     5.989163     1.515259
H    -2.466867     0.220953     3.353288
O    -2.689490    -0.591028     3.862070
H    -1.927800    -0.630821     4.481149
H    -0.838648     0.550706     6.005665
O    -0.562419     0.038719     5.222454
H     0.151781    -0.578340     5.490039
H     0.722660    -4.989801     1.993882
O     0.181452    -5.098343     2.799300
H     0.327322    -6.018613     3.072235
H    -2.106572    -8.086485     0.468677
O    -1.783499    -7.596958     1.252670
H    -2.569418    -7.286857     1.710087
H    -0.377843     6.863972    -2.321775
O    -1.125397     7.282948    -2.820275
H    -1.914274     7.156933    -2.255124
H    -1.106311     4.312061     0.581060
O    -0.735226     4.372351    -0.315685
H    -1.442696     4.129668    -0.946797
H    -4.395101     2.754445     3.518831
O    -4.392740     2.922717     4.484063
H    -4.480422     2.039526     4.890262
H     2.040785    -3.575945     4.254311
O     1.975651    -4.044968     5.109152
H     2.490689    -3.510981     5.736116
H     4.698798    -3.190228     0.844023
O     4.536373    -3.115673    -0.122256
H     3.677387    -2.638532    -0.204598
H    -2.716519    -0.748354    -1.336857
O    -3.042969    -0.477813    -0.462134
H    -3.843688     0.047847    -0.668841
H    -1.615671    -0.763404    -4.618228
O    -1.110375    -0.548061    -5.423242
H    -0.400221     0.049050    -5.140019
H     1.798225    -1.715316    -3.368861
O     1.890816    -0.968063    -2.746297
H     1.113330    -0.391119    -2.877160
H     3.676615    -3.116965     2.557181
O     4.635509    -3.345332     2.482278
H     4.691509    -4.305220     2.610242
H     3.441655    -6.115089     3.133196
O     3.795527    -5.915287     2.232085
H     3.057035    -5.570308     1.690179
H    -3.343023     1.608220    -4.164468
O    -4.187522     1.137430    -3.971836
H    -4.403391     1.284133    -3.015099
H    -5.076454     4.147767     0.080436
O    -5.515072     3.281324    -0.019827
H    -6.445667     3.399751    -0.301699
H     6.740512    -1.178903    -1.362837
O     5.968565    -1.029287    -0.810597
H     5.550738    -1.897121    -0.611354
H     4.598769    -3.167784    -2.465394
O     3.730001    -2.997381    -2.879944
H     3.732555    -3.616799    -3.635590
H     4.451610    -2.286740     5.626210
O     4.106565    -2.753848     6.417746
H     4.447385    -3.656944     6.339078
H    -0.739906     6.344884     5.079758
O    -1.337836     6.920561     5.616841
H    -1.351170     7.797616     5.175226
H     4.704199    -0.134027    -1.464435
O     3.935925     0.407535    -1.726519
H     3.243425    -0.193811    -2.054933
H    -0.743189     4.521683    -4.030791
O    -1.526590     5.064090    -4.237839
H    -1.374546     5.931373    -3.816711
H     0.661945     3.203528    -2.652622
O     0.667099     3.579320    -3.561486
H     0.714166     2.815409    -4.146406
H    -5.370789    -5.191998     1.817618
O    -4.674152    -5.786395     1.462078
H    -3.833446    -5.369928     1.731263
H     7.882999    -1.689834    -4.035790
O     7.626412    -1.375879    -3.136059
H     7.139130    -0.532260    -3.292508
H     3.701788    -5.074527    -5.281893
O     4.464786    -4.700192    -4.802468
H     4.850657    -5.410519    -4.256713
H    -3.770154     0.023816     4.943358
O    -4.366062     0.486807     5.582973
H    -5.027623    -0.170086     5.876865
H     3.473291    -5.940060    -0.509878
O     4.345112    -5.692756    -0.829936
H     4.421596    -4.730314    -0.687078
H     5.001423    -0.336474    -4.158989
O     4.465462    -1.048300    -4.547206
H     4.141104    -1.631166    -3.828212
H    -1.172038     1.570012    -3.926764
O    -1.823505     2.190056    -4.311609
H    -1.467638     2.520985    -5.158971
H     4.890806    -6.321027    -2.307899
O     5.222128    -6.646755    -3.173816
H     6.040647    -7.127218    -2.988103
H     8.744628    -5.090335    -2.918790
O     8.054190    -5.507749    -2.359121
H     8.089217    -6.465172    -2.460117
H     2.345181     4.723240     0.452264
O     1.766206     4.705740     1.223646
H     1.409947     3.785442     1.302864
H    -4.400161    -2.629742     4.250100
O    -5.294405    -2.289172     4.051128
H    -5.159164    -1.510411     3.471786
H    -5.835499    -3.194149     1.339773
O    -6.296750    -3.750568     2.009848
H    -6.107833    -3.314108     2.859460
H     1.700116     3.472453     6.867243
O     1.080587     3.994050     6.332427
H     0.299761     4.142447     6.906237
H     5.015380    -2.161810     3.619314
O     5.035940    -1.443843     4.283558
H     4.224175    -0.887238     4.127934
H     2.406695    -5.568571     4.850546
O     2.787311    -6.451862     4.589980
H     2.042928    -7.034972     4.418537
H     2.254445    -4.520321    -6.780238
O     2.086650    -5.007881    -5.963836
H     1.823138    -4.316094    -5.308632
H     6.447753    -4.099934    -0.501128
O     7.201705    -4.502364    -0.038553
H     7.708135    -4.925618    -0.759638
H    -1.720133     4.517307     7.696764
O    -0.824180     4.615714     8.084473
H    -0.633364     5.572612     8.106548
H    -5.122833     5.688550    -5.583964
O    -4.514957     4.925264    -5.604256
H    -3.758805     5.139286    -6.171893
H     3.275142    -2.533192    -8.430530
O     3.188915    -3.064745    -7.628317
H     4.066349    -3.039886    -7.201110
H    -0.659559     8.826815    -2.276837
O    -0.536239     9.655778    -1.758919
H     0.227256     9.482424    -1.183426
H     2.083476    -0.906587     5.215807
O     1.507304    -1.423415     5.807931
H     1.610642    -1.068898     6.702721
H     5.203820    -2.026599    -5.690519
O     5.549212    -2.793331    -6.212361
H     5.276790    -3.582809    -5.693359
H     5.712657    -5.206486     4.690916
O     5.191403    -5.120510     5.518131
H     4.470755    -5.753810     5.435288
H    -4.016375     1.215058     6.917033
O    -3.814541     1.660893     7.780712
H    -4.691762     2.043464     8.059579
H    -1.848794     9.615709    -0.743193
O    -2.708448     9.489349    -0.267203
H    -3.320462     10.117289    -0.654633
H    -5.947846     4.687037    -2.924028
O    -6.857223     4.566861    -3.265989
H    -6.767723     3.863987    -3.942694
H     0.102158    -7.063751    -1.126558
O     0.567919    -7.498338    -0.379063
H    -0.109955    -7.693222     0.271103
H    -7.635009     3.789168    -1.954848
O    -7.894398     3.202790    -1.213528
H    -7.752184     2.293852    -1.552783
H     4.002556    -0.892360     6.987251
O     4.001893     0.071196     6.974375
H     4.813431     0.370200     6.548244
H     2.261406     5.797930    -1.180349
O     3.197158     5.505637    -1.067293
H     3.372775     4.964781    -1.860178
H     6.560947    -5.925166     0.676235
O     6.193365    -6.661201     1.211071
H     5.289337    -6.383981     1.439580
H    -3.856606     4.735609     7.790793
O    -3.295343     4.272059     7.127222
H    -3.481113     3.328693     7.242376
H     5.772494    -7.942015     0.145851
O     5.483626    -8.630016    -0.490297
H     4.653757    -8.305091    -0.883487
H    -0.488464     2.100981     7.676119
O    -1.146998     1.955357     6.966224
H    -2.006120     2.016914     7.399927
H    -6.375677    -0.119673     1.084040
O    -6.695584    -0.204647     0.171431
H    -7.614307    -0.475634     0.189249
H    -5.364445    -3.064293    -0.565415
O    -5.112312    -2.360975     0.059300
H    -5.682709    -1.588693    -0.129569
H     4.323169     5.581970     0.316412
O     4.658605     5.683720     1.220877
H     3.964816     6.194060     1.674113
H    -9.040351    -1.747410    -2.225915
O    -8.491368    -1.545003    -1.440814
H    -8.617292    -2.281333    -0.802536
H    -5.528657     3.465778    -5.512160
O    -6.044870     2.755351    -5.095573
H    -5.377214     2.170599    -4.682628
H     3.177727    -0.891396    -5.650190
O     2.320961    -1.012350    -6.114257
H     2.406204    -1.861772    -6.587035
H     8.111177    -1.351654    -6.032420
O     8.120498    -2.215108    -5.574973
H     7.264082    -2.615754    -5.823569
H     7.616090     0.988276    -6.314913
O     7.426677     0.139456    -6.726881
H     6.445307     0.089071    -6.761229
H    -7.851002    -3.692304     0.957250
O    -8.530530    -3.585813     0.274026
H    -8.433409    -4.345746    -0.327285
H    -2.401376     8.740306     1.296933
O    -2.249495     8.152337     2.050209
H    -1.479068     7.599671     1.827139
H    -4.432799     6.441808     3.506676
O    -4.605359     6.865884     2.649692
H    -3.842671     7.452283     2.507586
H     3.400127     3.445902    -3.577552
O     3.246484     4.415174    -3.485016
H     2.281443     4.479413    -3.591077
H    -6.114475    -1.608926    -3.419838
O    -6.195652    -2.186923    -2.634694
H    -6.979241    -1.879634    -2.125580
H     6.483309     1.060324     4.735938
O     6.089639     1.598775     5.439032
H     6.276071     2.517586     5.148121
H     1.357240     1.718339    -5.817277
O     1.164060     1.123208    -5.062066
H     1.527823     0.260108    -5.331464
H    -2.517370     3.039859     10.561669
O    -2.317189     2.109252     10.343961
H    -2.909163     1.906636     9.606686
H     7.639962    -0.490326     3.080062
O     6.889673     0.085141     3.248257
H     6.198738    -0.514096     3.631423
H    -5.651118    -8.054502    -0.672103
O    -4.914975    -8.122049    -0.027026
H    -4.918220    -7.304291     0.494085
H    -5.179272    -0.123103    -4.696260
O    -5.796598    -0.835458    -4.933661
H    -6.635210    -0.394348    -5.131081
H     1.883238    -0.204039    -7.508455
O     1.679799     0.266720    -8.352526
H     2.255473    -0.139009    -9.006216
H     4.862593    -1.400022    -9.301447
O     3.936811    -1.171883    -9.582279
H     3.915023    -1.290946    -10.531135
H     7.579209    -2.561230     4.198753
O     7.723883    -2.598525     3.238964
H     7.230660    -3.390178     2.969328
H     6.734637    -5.887852     2.689158
O     6.796770    -5.211687     3.389243
H     7.673495    -5.295321     3.805832
H    -1.811175     8.954001     3.499413
O    -1.562321     9.259702     4.397038
H    -2.410364     9.393146     4.853512
H    -7.393564     1.562161    -5.229544
O    -7.967498     0.818129    -4.982068
H    -8.869357     1.217367    -4.905341
H     6.918059    -1.088152    -8.405794
O     6.335772    -1.809648    -8.667500
H     6.109750    -2.258721    -7.834620
H    -1.684917     6.235232    -7.017032
O    -2.082036     5.410232    -6.741540
H    -1.831689     5.280753    -5.778227
H    -0.056268     3.508932     9.003591
O     0.322323     2.638366     9.238985
H    -0.379980     2.233372     9.768518
H     6.758841    -2.778366    -2.704017
O     6.229120    -3.522475    -2.361486
H     6.697729    -4.333352    -2.607646
H    -4.078856    -3.077096    -4.922888
O    -4.234800    -2.965706    -5.887518
H    -4.782623    -2.173062    -5.943783
H     1.989953     2.163591     8.348174
O     2.750788     2.321350     7.768255
H     3.124499     1.437831     7.592327
H    -6.902123    -5.202376    -1.367319
O    -7.818128    -5.472308    -1.610596
H    -7.953510    -5.071186    -2.493960
H    -3.814110     5.266135     5.706026
O    -3.781079     6.033381     5.114075
H    -2.846919     6.328481     5.207387
H    -7.882256     0.086136    -1.942803
O    -7.393204     0.809464    -2.357615
H    -7.623053     0.797549    -3.310560
H     5.844712     0.134890     0.411385
O     5.623198     0.856924     1.031723
H     6.135200     0.663143     1.844019
H    -6.183597     3.315099     7.423897
O    -6.047761     2.792015     8.248191
H    -6.657283     2.037681     8.164162
H     2.285872    -8.071660    -0.827038
O     2.961185    -8.059277    -1.524884
H     2.735632    -8.774374    -2.136568
H    -2.748089    -3.966889    -6.177641
O    -1.993959    -4.532700    -5.946456
H    -1.716027    -4.239936    -5.050217
H    -5.628257     3.769100     5.327163
O    -6.272642     4.163004     5.950597
H    -6.117041     5.108267     5.929148
H    -1.015409    -7.115666    -3.142696
O    -0.542437    -6.444993    -2.616077
H     0.364477    -6.375889    -2.998590
H     4.455135     2.027096     5.131665
O     3.512820     2.262955     5.013087
H     3.131060     2.278210     5.898045
H     4.123350     4.668852     6.301044
O     4.205863     5.396685     5.680278
H     3.635378     5.155783     4.912050
H     2.777502     3.625720     3.926518
O     2.597860     4.565034     3.757467
H     2.478103     4.661590     2.791192
H     9.398339     0.215411    -1.077832
O     8.592514     0.378269    -0.583984
H     8.418287    -0.439641    -0.088779
H    -2.071730     5.334753     10.659564
O    -2.792521     4.704650     10.893934
H    -3.011118     4.885949     11.808291
H     7.981123    -3.004075     0.326995
O     8.402303    -2.156873     0.580103
H     8.338433    -2.150669     1.542566
H     5.381340     3.674103     3.522567
O     6.039884     3.941490     4.185357
H     5.626868     4.657591     4.689905
H    -4.182215     5.036933     9.799213
O    -4.817601     5.184198     9.078340
H    -5.429460     4.435723     9.080690
H    -7.009507    -3.481358    -3.458442
O    -7.630714    -4.093976    -3.904712
H    -7.110916    -4.536816    -4.607400
H     0.048796     6.141394     10.775398
O    -0.815322     6.474217     10.527771
H    -0.698533     6.904541     9.661615
H     2.587854     1.494219    -4.101492
O     3.466506     1.847629    -3.865012
H     3.788523     1.333864    -3.094327
H    -6.955208    -0.208617     7.242408
O    -7.459611     0.572477     7.522509
H    -8.086787     0.754637     6.821668
H    -2.734510    -9.872352    -0.802424
O    -2.672054    -8.930843    -0.963375
H    -3.577711    -8.564531    -0.721848
H    -10.072215     3.070451    -4.873372
O    -10.188321     2.153293    -4.591219
H    -10.402519     2.238457    -3.641256
H    -2.048634    -3.017249     4.631257
O    -2.925414    -3.453358     4.705699
H    -2.922705    -4.073976     3.951343
H    -0.164583    -7.976913     2.506079
O     0.662325    -7.764356     2.951929
H     1.379903    -8.061410     2.364780
H     6.726434    -2.362132     6.393651
O     7.173476    -3.072787     5.929160
H     6.543636    -3.807839     5.894515
H    -5.255965    -1.995997     6.965762
O    -5.927548    -1.491993     6.481558
H    -5.916488    -1.871657     5.573125
H     0.828686     3.027253    -7.109675
O     1.746234     2.696512    -7.166927
H     1.731561     1.948229    -7.791836
H    -3.938546     8.768800     6.678669
O    -3.940100     8.764983     5.721299
H    -4.064687     7.836929     5.455267
H    -2.061339     10.313565    -2.736247
O    -2.963720     10.494197    -3.036468
H    -2.893864     11.127408    -3.750217
H     9.425870    -4.050720     4.042669
O     9.146717    -4.728361     4.666036
H     8.719162    -4.255285     5.390880
H    -0.737309    -6.001550    -5.821691
O    -0.033237    -6.567371    -5.488306
H     0.801851    -6.106185    -5.708330
H     1.831113     8.280101     0.661027
O     1.525553     8.600304    -0.216472
H     2.339151     8.638177    -0.748635
H     3.491706     2.925635    -6.662142
O     4.320168     2.636108    -6.254155
H     4.076871     2.363613    -5.344388
H     3.735465     7.127753    -1.235375
O     3.940211     8.063250    -1.450719
H     4.307975     8.005999    -2.344559
H     4.386965    -0.012943    -7.909734
O     4.765439     0.134487    -7.041119
H     4.584155     1.066756    -6.798512
H     6.035803     1.937225    -0.478386
O     6.599192     2.129399    -1.241873
H     7.424463     1.650525    -1.048968
H     6.689830    -8.428893    -1.598440
O     7.324049    -8.218981    -2.336695
H     7.690744    -9.053436    -2.623980
H    -5.303370    -5.793247    -5.380121
O    -5.921383    -5.121659    -5.694129
H    -5.370867    -4.353796    -5.933441
H     0.702276     7.186769     7.601066
O    -0.199482     7.221921     7.959748
H    -0.754593     7.233933     7.142251
H    -8.898136    -2.837735    -4.071604
O    -9.418033    -2.028931    -3.903794
H    -9.133922    -1.365090    -4.535901
H    -2.405924    -5.988255    -2.121429
O    -3.284723    -5.702379    -2.388425
H    -3.473582    -6.078230    -3.273395
H    -2.988683    -5.904107    -5.386078
O    -3.587470    -6.513233    -4.911583
H    -3.105170    -7.333333    -4.745102
H    -1.398339     3.721079    -6.974674
O    -0.857522     2.965774    -6.703627
H    -1.095060     2.179889    -7.252212
H    -0.213119     0.410611    -8.205917
O    -1.108666     0.645990    -7.921015
H    -1.282185     0.123265    -7.122180
H    -10.423014     4.050615    -2.709719
O    -10.488949     3.272854    -2.140141
H    -9.658548     3.247620    -1.632991
H     4.588678     4.087265     1.717441
O     4.379624     3.166203     1.995029
H     5.096705     2.590662     1.716163
H     6.483832     1.397881    -4.223079
O     6.182093     0.774591    -3.527788
H     6.214709     1.271097    -2.684620
H     9.638394    -2.221541    -0.934365
O     9.913112    -2.008430    -1.835045
H     9.111850    -1.670244    -2.277213
H     9.970933    -3.319183    -3.102715
O     9.702703    -3.972107    -3.776346
H     9.307663    -3.465463    -4.496544
H    -7.692664    -8.575402    -1.631029
O    -6.955460    -7.980569    -1.760734
H    -7.333733    -7.067865    -1.751473
H     4.158167     6.080733    -3.826110
O     4.819070     6.782389    -3.743237
H     5.655770     6.329068    -3.606686
H     0.096574    -8.173593    -5.195212
O     0.120664    -9.156306    -5.062041
H     0.269801    -9.521294    -5.934327
H    -2.328817    -8.674317    -2.690267
O    -2.097088    -8.411247    -3.600531
H    -1.451091    -9.029877    -3.960190
H     2.186595    -10.816937    -3.476016
O     2.139867    -9.862406    -3.452545
H     1.353469    -9.592616    -3.977747
H     6.832664     3.330120    -4.581362
O     6.889606     2.650969    -5.281401
H     6.095126     2.783249    -5.820813
H    -3.859285    -3.791109     7.574459
O    -3.698225    -2.960207     7.121823
H    -3.431324    -3.210471     6.204404
H    -0.643158    -3.367390    -6.708831
O    -0.013161    -2.635785    -6.718275
H    -0.494500    -1.859962    -6.376939
H     0.974544    -0.306046     9.003123
O     0.785833    -0.190298     8.067387
H    -0.151095    -0.424989     8.008718
H    -5.838077     7.365325    -4.239667
O    -6.341884     6.745479    -4.798836
H    -6.627595     6.015429    -4.206051
H    -4.281557     9.102096    -3.256837
O    -4.816736     8.305899    -3.148284
H    -4.406548     7.827609    -2.409583
H    -9.716134     5.792508    -4.624369
O    -10.248868     4.987834    -4.458700
H    -11.130047     5.187879    -4.776456
H     2.783100     6.527436     6.139253
O     1.822821     6.622699     6.235557
H     1.482004     5.706668     6.141167
H     4.807522     8.552597     0.074436
O     5.126275     8.554804     0.994862
H     5.534163     7.691047     1.126401
H     4.143143    -7.426796    -4.330942
O     3.383904    -7.712409    -4.871225
H     3.104937    -8.553153    -4.493644
H     0.389972     8.669220     4.233882
O     1.065962     8.023278     4.004642
H     1.295161     7.531820     4.819739
H     5.234439     4.192515    -3.162486
O     6.195992     4.162825    -3.111697
H     6.406610     3.582608    -2.363370
H    -2.616703    -1.662339     7.791053
O    -2.134643    -0.866799     8.088784
H    -2.808491    -0.176548     8.147402
H    -9.031962     7.933675    -4.129373
O    -8.970134     7.347468    -4.885010
H    -8.013257     7.183959    -5.022178
H     3.541081    -8.974250     1.105758
O     2.864811    -8.342035     1.354592
H     3.339972    -7.536415     1.632820
H     3.591459     8.179092     1.822392
O     2.800799     7.616142     1.936667
H     2.357022     7.852151     2.764065
N    -0.800685    -0.479161     10.637605
H    -1.372275    -0.790928     9.916226
H    -1.268362     0.300761     10.960499
