33

H    -0.136073    -3.431968     3.751434
O    -0.464467    -2.646144     4.216582
H     0.218921    -2.425794     4.871822
H    -2.434535    -3.620383     1.890927
O    -2.473692    -4.506784     2.315429
H    -1.544149    -4.821645     2.339106
H     1.988957    -1.712654     2.913637
O     2.117094    -2.663812     2.782348
H     1.475826    -2.888358     2.076622
H     0.747117    -5.094143     1.899765
O     0.195240    -5.092021     2.710013
H     0.309385    -6.004025     3.038049
H     2.056048    -3.597198     4.327739
O     2.040848    -4.058471     5.192847
H     2.559525    -3.471083     5.780108
H     2.471670    -5.631796     4.881856
O     2.842402    -6.512889     4.623447
H     2.093815    -7.102599     4.493075
H     2.072586    -0.750225     5.275503
O     1.535116    -1.310765     5.868401
H     1.547085    -0.897611     6.750781
H    -2.165624    -2.944280     4.622738
O    -2.956830    -3.510938     4.738079
H    -2.931756    -4.047851     3.910983
H    -0.165563    -8.053432     2.430027
O     0.670477    -7.868399     2.876935
H     1.370117    -8.124173     2.244543
H    -3.681189    -3.565237     7.877849
O    -3.708695    -2.858440     7.233215
H    -3.495556    -3.253742     6.359899
N    -0.530872    -5.465063     5.736106
H    -1.254381    -4.849429     5.567289
H     0.259461    -4.904907     5.727139
