603

H     0.198377     3.031187    -0.671104
O     0.720753     2.361982    -1.163490
H     1.659848     2.491072    -0.890740
H    -0.076831    -1.304755     3.162499
O     0.313954    -0.604785     2.616932
H    -0.162449     0.209246     2.850192
H    -2.401245     2.411062    -0.526482
O    -2.191868     1.940704     0.298041
H    -2.206380     0.992875     0.072626
H    -4.664346     0.548931     2.192595
O    -4.979743    -0.385353     2.210340
H    -4.479052    -0.862686     1.540383
H     0.062345    -0.307399     0.961437
O    -0.137376    -0.070758     0.035119
H     0.203845     0.824991    -0.087068
H    -0.156470    -3.574058     3.790615
O    -0.435874    -2.743886     4.210949
H     0.210990    -2.573524     4.912231
H    -4.888452     2.532115     1.339903
O    -4.249600     2.121856     1.955278
H    -3.406731     2.104331     1.442037
H    -3.251837     3.897302    -2.203739
O    -2.514572     3.300064    -1.972201
H    -2.156151     3.011800    -2.831823
H    -0.127749    -3.804374     0.516176
O     0.212177    -2.986263     0.933069
H    -0.574800    -2.499602     1.244614
H    -2.379941    -1.535327     2.480870
O    -2.192426    -2.002083     1.640969
H    -2.449481    -1.415680     0.910259
H     2.069615    -1.444219    -1.111246
O     2.301350    -1.695881    -0.193464
H     1.512579    -2.123894     0.190671
H    -1.392576     1.825419     1.920679
O    -1.486314     1.428975     2.797182
H    -1.468166     2.141994     3.461293
H     0.204921    -2.704162    -1.558670
O    -0.550797    -2.092497    -1.612770
H    -0.370647    -1.365562    -0.979840
H    -3.440154    -2.924471    -0.378548
O    -2.722736    -3.417281    -0.797899
H    -2.012601    -2.787187    -1.017990
H     2.771133     0.130898     2.941931
O     2.869680    -0.051003     3.903829
H     2.962276     0.841960     4.307945
H    -3.531963     6.380794    -0.536660
O    -3.293691     7.042815    -1.237175
H    -3.151602     7.888343    -0.767661
H     3.899395     0.584524     1.193664
O     2.948802     0.402989     1.310228
H     2.711510    -0.349768     0.731249
H    -5.785020     0.843015    -1.594468
O    -4.874492     1.169792    -1.467134
H    -4.985344     1.998732    -0.956497
H    -1.213303     5.399550     2.215693
O    -1.838590     4.652196     2.100898
H    -1.914781     4.234470     2.963904
H     3.491116     2.763027     0.431442
O     3.242106     2.719547    -0.507399
H     3.574904     1.876968    -0.857815
H     1.487013    -4.698512    -2.238374
O     1.551637    -3.920622    -1.666046
H     2.346379    -3.460081    -2.017719
H    -0.925901    -0.086466    -2.538319
O    -0.291957     0.565847    -2.863131
H    -0.030929     1.148641    -2.126819
H     1.695772    -4.685817    -0.167231
O     1.802566    -5.321995     0.576116
H     1.339417    -6.133635     0.280822
H    -1.231088    -3.267471    -2.867578
O    -1.057920    -3.951215    -3.527957
H    -0.931322    -4.797995    -3.058644
H    -2.780790     3.314693     4.713515
O    -1.800153     3.309424     4.678857
H    -1.506358     2.908808     5.515353
H     0.961293     5.038275     4.081116
O     0.015086     5.270031     4.134512
H    -0.455821     4.466578     4.392921
H    -1.734056    -4.650938    -0.358034
O    -0.968700    -5.190685    -0.072136
H    -1.315942    -5.878329     0.505471
H    -3.921370     5.831394    -2.591429
O    -4.272317     4.996938    -2.920086
H    -4.118147     4.961376    -3.888441
H    -2.432700    -3.688040     1.948830
O    -2.451665    -4.590688     2.327872
H    -1.511704    -4.830068     2.466300
H    -4.700167    -2.981157    -2.885283
O    -3.847845    -3.213936    -3.291612
H    -3.516783    -4.007691    -2.826547
H     0.338832     1.380051     4.624051
O     0.842229     2.140918     4.288554
H     0.894124     2.799572     4.995528
H    -4.659680    -5.170028    -1.556202
O    -5.360576    -4.815317    -0.982025
H    -5.147487    -5.170529    -0.098170
H     2.320969    -6.484751    -4.026543
O     1.984311    -6.155228    -3.173134
H     2.418898    -6.728776    -2.509697
H     0.461598    -3.381703    -3.994114
O     1.264046    -3.014749    -4.417710
H     0.944255    -2.644084    -5.266490
H     1.962543    -1.750674     2.991377
O     2.116895    -2.681836     2.774919
H     1.430970    -2.895988     2.108237
H    -3.019805    -1.810678    -3.197612
O    -2.597836    -0.924040    -3.132647
H    -3.253160    -0.278784    -3.453372
H    -3.192643     4.977393     1.087157
O    -3.975017     5.349874     0.633113
H    -4.389588     5.908743     1.338712
H     0.874669     2.255708     2.598545
O     0.974020     2.249717     1.627282
H     1.701497     1.627069     1.462850
H     0.187212     5.656930    -0.752788
O     0.708482     6.318356    -1.262418
H     0.851118     7.118652    -0.707453
H     0.341634     7.038280     2.595298
O    -0.021523     6.656581     1.778920
H     0.642854     5.986520     1.516934
H    -2.480197     0.219428     3.351416
O    -2.705266    -0.591461     3.860871
H    -1.941459    -0.633273     4.479356
H    -0.893291     0.557702     6.035521
O    -0.622003     0.037457     5.260791
H     0.093182    -0.565256     5.546430
H     0.706841    -4.992966     1.992812
O     0.164364    -5.101406     2.797327
H     0.309392    -6.021750     3.070562
H    -2.122757    -8.087528     0.463933
O    -1.799876    -7.597885     1.247919
H    -2.585899    -7.288262     1.705488
H    -0.383313     6.862831    -2.320679
O    -1.130063     7.282504    -2.819662
H    -1.919674     7.156539    -2.255524
H    -1.116447     4.310542     0.580765
O    -0.744036     4.370973    -0.315483
H    -1.450833     4.128659    -0.947564
H    -4.410273     2.752770     3.514241
O    -4.411251     2.923409     4.479187
H    -4.491549     2.040758     4.887835
H     2.022781    -3.579455     4.255115
O     1.958328    -4.050648     5.108743
H     2.466704    -3.514640     5.738867
H     4.684657    -3.194714     0.848288
O     4.523627    -3.119466    -0.118161
H     3.664754    -2.642276    -0.201432
H    -2.726838    -0.748698    -1.340170
O    -3.054226    -0.478082    -0.465800
H    -3.854321     0.048074    -0.673547
H    -1.622446    -0.763390    -4.620618
O    -1.116122    -0.547853    -5.424935
H    -0.405921     0.048639    -5.140624
H     1.789679    -1.717221    -3.367554
O     1.882133    -0.970034    -2.744826
H     1.104901    -0.392893    -2.876220
H     3.660677    -3.121192     2.560241
O     4.619628    -3.350004     2.486721
H     4.674515    -4.310109     2.614112
H     3.423681    -6.119782     3.134991
O     3.778951    -5.919238     2.234465
H     3.041065    -5.574285     1.691736
H    -3.348989     1.609167    -4.168028
O    -4.193982     1.138866    -3.976470
H    -4.410800     1.285231    -3.019956
H    -5.085863     4.148278     0.075597
O    -5.524974     3.282095    -0.024556
H    -6.454977     3.401052    -0.308471
H     6.729739    -1.184045    -1.356208
O     5.957665    -1.033896    -0.804261
H     5.538883    -1.901548    -0.605836
H     4.588564    -3.171414    -2.461504
O     3.720434    -3.000233    -2.877048
H     3.723373    -3.619588    -3.632774
H     4.434275    -2.290708     5.630149
O     4.091023    -2.755348     6.423623
H     4.426130    -3.660460     6.343059
H    -0.754376     6.341977     5.080586
O    -1.351459     6.917773     5.618369
H    -1.364572     7.794804     5.176557
H     4.694241    -0.138087    -1.459586
O     3.926584     0.404152    -1.722108
H     3.234106    -0.196676    -2.051673
H    -0.747871     4.521189    -4.030728
O    -1.530764     5.064087    -4.238391
H    -1.378728     5.931186    -3.816997
H     0.654968     3.202015    -2.651422
O     0.661529     3.578116    -3.560115
H     0.708700     2.814313    -4.145196
H    -5.386823    -5.193254     1.810614
O    -4.689863    -5.785963     1.453782
H    -3.849282    -5.370628     1.724940
H     7.875128    -1.694746    -4.027858
O     7.617801    -1.380756    -3.128302
H     7.131073    -0.536936    -3.285197
H     3.693674    -5.076744    -5.279474
O     4.456406    -4.702980    -4.799131
H     4.841230    -5.413736    -4.253183
H    -3.697176     0.032298     4.933192
O    -4.328404     0.485570     5.546278
H    -5.013382    -0.163874     5.770433
H     3.459576    -5.943608    -0.508089
O     4.332041    -5.696574    -0.826673
H     4.408553    -4.734203    -0.683700
H     4.994378    -0.339835    -4.153908
O     4.458469    -1.051220    -4.542915
H     4.133014    -1.634240    -3.824500
H    -1.178357     1.569650    -3.927973
O    -1.828935     2.190357    -4.313272
H    -1.472036     2.521105    -5.160287
H     4.878893    -6.324769    -2.304365
O     5.211165    -6.650181    -3.170035
H     6.029121    -7.131291    -2.983538
H     8.733946    -5.095924    -2.910631
O     8.042852    -5.512984    -2.351563
H     8.077245    -6.470424    -2.452853
H     2.335336     4.719982     0.456120
O     1.756422     4.702453     1.227610
H     1.399054     3.782309     1.305894
H    -4.416818    -2.630462     4.244757
O    -5.310638    -2.283755     4.049160
H    -5.173309    -1.508193     3.465165
H    -5.849361    -3.192373     1.332671
O    -6.311834    -3.748599     2.002099
H    -6.125796    -3.314074     2.852362
H     1.687479     3.473451     6.868366
O     1.063720     3.988100     6.334481
H     0.281724     4.142419     6.906834
H     4.998866    -2.167637     3.624026
O     5.019658    -1.448680     4.287450
H     4.207848    -0.892657     4.130870
H     2.388014    -5.573702     4.850728
O     2.768125    -6.457272     4.590411
H     2.023083    -7.039341     4.418159
H     2.248241    -4.521542    -6.779310
O     2.079532    -5.009147    -5.963135
H     1.815486    -4.317466    -5.308065
H     6.434774    -4.104992    -0.495113
O     7.188264    -4.507520    -0.031884
H     7.695127    -4.931056    -0.752522
H    -1.723498     4.497823     7.707410
O    -0.825129     4.595275     8.093004
H    -0.642920     5.554387     8.116304
H    -5.125207     5.690712    -5.588473
O    -4.517543     4.927243    -5.608071
H    -3.760813     5.140938    -6.175052
H     3.271755    -2.534435    -8.427999
O     3.184361    -3.066076    -7.625979
H     4.061346    -3.041930    -7.197851
H    -0.664245     8.825838    -2.275473
O    -0.541056     9.654584    -1.757120
H     0.221848     9.480766    -1.181044
H     2.065467    -0.908943     5.220223
O     1.491031    -1.432765     5.807869
H     1.587746    -1.088898     6.705321
H     5.197689    -2.029651    -5.685665
O     5.543381    -2.796382    -6.207259
H     5.269840    -3.585901    -5.688859
H     5.693006    -5.212492     4.695793
O     5.171198    -5.126258     5.522602
H     4.449933    -5.758760     5.438614
H    -3.973890     1.151908     7.016895
O    -3.784391     1.625518     7.861191
H    -4.657863     2.015128     8.122252
H    -1.854663     9.614935    -0.742830
O    -2.714768     9.488946    -0.267523
H    -3.326128     10.117127    -0.655634
H    -5.953702     4.688852    -2.929699
O    -6.862773     4.569208    -3.272598
H    -6.772865     3.866505    -3.949472
H     0.088416    -7.065392    -1.128609
O     0.553246    -7.500244    -0.380719
H    -0.125463    -7.695159     0.268607
H    -7.642414     3.791559    -1.962604
O    -7.902504     3.205184    -1.221511
H    -7.760786     2.296220    -1.561047
H     3.973432    -0.887602     6.994335
O     3.981617     0.076579     6.983674
H     4.794080     0.365989     6.552042
H     2.254160     5.795228    -1.176573
O     3.189604     5.502336    -1.062368
H     3.365847     4.961770    -1.855395
H     6.545744    -5.930466     0.681863
O     6.177371    -6.666328     1.216315
H     5.273033    -6.388991     1.443607
H    -3.867177     4.736717     7.789087
O    -3.302766     4.272601     7.129005
H    -3.493465     3.329406     7.242257
H     5.757038    -7.946748     0.149895
O     5.468815    -8.634249    -0.487030
H     4.639279    -8.309124    -0.880787
H    -0.555317     2.048943     7.700922
O    -1.190459     1.984007     6.967177
H    -2.057114     1.840618     7.366126
H    -6.388678    -0.118629     1.076683
O    -6.707364    -0.202656     0.163791
H    -7.626011    -0.474188     0.179734
H    -5.376384    -3.063795    -0.571558
O    -5.125189    -2.360156     0.053415
H    -5.694736    -1.587830    -0.137371
H     4.314329     5.577675     0.322170
O     4.648539     5.678946     1.227194
H     3.954506     6.189981     1.679287
H    -9.050170    -1.743954    -2.236675
O    -8.501815    -1.541923    -1.451003
H    -8.628752    -2.278614    -0.813209
H    -5.532166     3.468083    -5.517727
O    -6.049247     2.758000    -5.101665
H    -5.382392     2.172613    -4.688318
H     3.172053    -0.893438    -5.647282
O     2.315753    -1.013694    -6.112360
H     2.400971    -1.863108    -6.585190
H     8.105725    -1.356075    -6.024120
O     8.114086    -2.219587    -5.566777
H     7.257774    -2.619800    -5.816505
H     7.612099     0.984256    -6.306617
O     7.422755     0.135596    -6.718923
H     6.441398     0.085680    -6.754478
H    -7.866089    -3.691045     0.947681
O    -8.543130    -3.582478     0.262465
H    -8.447121    -4.343286    -0.337897
H    -2.410087     8.739133     1.296662
O    -2.258964     8.151078     2.050078
H    -1.488850     7.597930     1.827193
H    -4.444671     6.440651     3.503903
O    -4.616134     6.865375     2.647123
H    -3.852991     7.451343     2.505741
H     3.394391     3.443248    -3.573160
O     3.241141     4.412587    -3.480238
H     2.276266     4.477275    -3.587660
H    -6.123009    -1.606920    -3.427296
O    -6.204986    -2.184668    -2.642086
H    -6.989469    -1.877669    -2.134165
H     6.466340     1.052901     4.743932
O     6.072410     1.592435     5.446376
H     6.260825     2.510772     5.154644
H     1.353201     1.717333    -5.815674
O     1.159061     1.122226    -5.060682
H     1.522374     0.258887    -5.330002
H    -2.486342     2.974780     10.492892
O    -2.274436     2.067044     10.219776
H    -2.872964     1.865822     9.489006
H     7.624804    -0.496063     3.088183
O     6.874798     0.079679     3.256937
H     6.182953    -0.520460     3.637398
H    -5.666021    -8.053386    -0.681227
O    -4.930046    -8.121168    -0.035968
H    -4.934052    -7.304251     0.486372
H    -5.185543    -0.121166    -4.702434
O    -5.802945    -0.833144    -4.940645
H    -6.641166    -0.391661    -5.138870
H     1.880008    -0.204842    -7.506786
O     1.677838     0.266381    -8.350904
H     2.253913    -0.139563    -9.004113
H     4.860780    -1.401766    -9.296809
O     3.935450    -1.172978    -9.578576
H     3.914624    -1.291807    -10.527487
H     7.561420    -2.568427     4.206612
O     7.707371    -2.605061     3.247008
H     7.214136    -3.396383     2.976239
H     6.716802    -5.893668     2.694919
O     6.779066    -5.217625     3.395184
H     7.655148    -5.302597     3.812698
H    -1.821891     8.951951     3.499898
O    -1.573790     9.256779     4.398100
H    -2.422314     9.390852     4.853495
H    -7.398447     1.565349    -5.237659
O    -7.972926     0.821570    -4.990764
H    -8.874751     1.221087    -4.915161
H     6.915405    -1.091324    -8.398743
O     6.333017    -1.812420    -8.661304
H     6.105835    -2.261659    -7.828828
H    -1.685380     6.236126    -7.017541
O    -2.083234     5.411258    -6.742719
H    -1.834048     5.281319    -5.779226
H     0.003016     3.320343     9.030299
O     0.199507     2.400393     9.284785
H    -0.597299     2.136774     9.793576
H     6.749006    -2.783090    -2.697676
O     6.218636    -3.526926    -2.355640
H     6.687014    -4.338043    -2.601515
H    -4.086354    -3.075706    -4.928531
O    -4.240947    -2.963791    -5.893315
H    -4.788580    -2.171055    -5.949961
H     1.981935     2.191397     8.472056
O     2.644401     2.303356     7.780637
H     3.067133     1.433201     7.666003
H    -6.914727    -5.200299    -1.376677
O    -7.830548    -5.469623    -1.621025
H    -7.964883    -5.068474    -2.504450
H    -3.826369     5.263393     5.705471
O    -3.795221     6.030568     5.113219
H    -2.861265     6.326129     5.205737
H    -7.891427     0.088528    -1.951905
O    -7.401664     0.812007    -2.365699
H    -7.630374     0.800404    -3.318961
H     5.832855     0.129994     0.417532
O     5.611167     0.851978     1.038008
H     6.122278     0.657598     1.850634
H    -6.214483     3.323719     7.405545
O    -6.088757     2.801912     8.233156
H    -6.693045     2.045238     8.148135
H     2.271383    -8.074426    -0.826932
O     2.947574    -8.062209    -1.523949
H     2.722341    -8.777066    -2.136053
H    -2.754597    -3.965802    -6.182075
O    -2.000789    -4.531796    -5.950314
H    -1.723904    -4.239613    -5.053568
H    -5.643960     3.769152     5.318965
O    -6.292802     4.162789     5.938648
H    -6.131694     5.107304     5.924435
H    -1.026992    -7.116325    -3.145853
O    -0.554151    -6.445774    -2.618887
H     0.353163    -6.377250    -3.000423
H     4.443426     2.021506     5.133656
O     3.501595     2.260908     5.014261
H     3.118441     2.277745     5.896630
H     4.110077     4.663275     6.303874
O     4.189618     5.393195     5.685361
H     3.621836     5.151697     4.914967
H     2.763680     3.621703     3.927571
O     2.585066     4.561498     3.760909
H     2.465629     4.659269     2.794391
H     9.387947     0.208911    -1.067926
O     8.582178     0.372418    -0.574150
H     8.406648    -0.445905    -0.080047
H    -2.098207     5.332645     10.657479
O    -2.821309     4.705207     10.889077
H    -3.037520     4.881728     11.804966
H     7.967808    -3.010022     0.334690
O     8.389094    -2.163079     0.588720
H     8.324112    -2.157394     1.551091
H     5.368960     3.668337     3.527845
O     6.025529     3.934215     4.193530
H     5.613675     4.653169     4.694537
H    -4.204685     5.036920     9.793308
O    -4.838806     5.184449     9.071145
H    -5.450933     4.436555     9.073255
H    -7.018690    -3.478933    -3.467528
O    -7.639821    -4.090668    -3.914936
H    -7.119504    -4.533855    -4.617005
H     0.030252     6.140772     10.775882
O    -0.834673     6.470958     10.528153
H    -0.718976     6.901648     9.661919
H     2.581736     1.492158    -4.098708
O     3.460243     1.845159    -3.860888
H     3.781137     1.330777    -3.090184
H    -6.968078    -0.096232     7.153786
O    -7.527236     0.556221     7.611412
H    -8.155206     0.851109     6.945523
H    -2.750087    -9.872567    -0.808313
O    -2.686809    -8.931120    -0.969356
H    -3.592582    -8.564333    -0.728644
H    -10.076697     3.075040    -4.883920
O    -10.193414     2.157809    -4.602285
H    -10.408869     2.242505    -3.652603
H    -2.071029    -3.018396     4.629017
O    -2.948342    -3.454772     4.697360
H    -2.939764    -4.077051     3.944362
H    -0.183118    -7.979336     2.503985
O     0.643758    -7.767307     2.950151
H     1.361449    -8.064967     2.363535
H     6.704938    -2.370116     6.400460
O     7.153721    -3.080240     5.936845
H     6.523738    -3.815161     5.899945
H    -5.253680    -2.003660     6.871786
O    -5.995427    -1.553451     6.416707
H    -5.936992    -1.918416     5.500393
H     0.826666     3.026830    -7.108253
O     1.744140     2.695714    -7.164577
H     1.729796     1.947585    -7.789707
H    -3.953148     8.766443     6.677059
O    -3.952755     8.762891     5.719700
H    -4.078141     7.835142     5.453138
H    -2.064525     10.313458    -2.736095
O    -2.966549     10.494682    -3.036999
H    -2.895728     11.127851    -3.750699
H     9.407752    -4.058521     4.051618
O     9.128083    -4.735946     4.674977
H     8.699451    -4.262801     5.399114
H    -0.745263    -6.001528    -5.824397
O    -0.041791    -6.567761    -5.490457
H     0.793746    -6.106984    -5.709480
H     1.823017     8.277068     0.664858
O     1.518756     8.597868    -0.212738
H     2.332900     8.635289    -0.744126
H     3.489080     2.923705    -6.657882
O     4.316980     2.633890    -6.248938
H     4.072483     2.361051    -5.339617
H     3.728906     7.124239    -1.229771
O     3.934503     8.059724    -1.444352
H     4.303111     8.002620    -2.337880
H     4.384262    -0.015029    -7.905186
O     4.761925     0.132134    -7.036164
H     4.580730     1.064392    -6.793573
H     6.025791     1.932233    -0.471799
O     6.590402     2.124656    -1.234269
H     7.415066     1.644953    -1.040690
H     6.676281    -8.433463    -1.593628
O     7.311617    -8.223588    -2.330965
H     7.678326    -9.058132    -2.617985
H    -5.311775    -5.791120    -5.387836
O    -5.928949    -5.119054    -5.702473
H    -5.377702    -4.351503    -5.940988
H     0.684399     7.182870     7.603743
O    -0.217022     7.210232     7.963687
H    -0.772945     7.225112     7.146543
H    -8.906630    -2.834064    -4.082393
O    -9.425996    -2.024810    -3.915030
H    -9.140872    -1.361278    -4.546991
H    -2.418217    -5.988507    -2.125783
O    -3.296253    -5.701542    -2.394112
H    -3.484448    -6.077615    -3.279124
H    -2.996938    -5.903257    -5.391350
O    -3.596599    -6.512067    -4.917640
H    -3.115002    -7.332505    -4.750719
H    -1.400151     3.721701    -6.975617
O    -0.859994     2.966116    -6.704070
H    -1.097243     2.180449    -7.253157
H    -0.215279     0.410992    -8.206371
O    -1.110935     0.646929    -7.922280
H    -1.285720     0.123899    -7.123917
H    -10.429319     4.054675    -2.720644
O    -10.496324     3.277008    -2.151063
H    -9.666471     3.251101    -1.643153
H     4.577455     4.082579     1.722929
O     4.369056     3.161958     2.002622
H     5.084539     2.585557     1.721290
H     6.477765     1.393812    -4.216021
O     6.174957     0.770571    -3.521137
H     6.206859     1.266861    -2.677879
H     9.626808    -2.228122    -0.924654
O     9.902747    -2.014402    -1.824808
H     9.102040    -1.676223    -2.267982
H     9.961318    -3.325135    -3.093025
O     9.693475    -3.977783    -3.767033
H     9.299422    -3.470863    -4.487578
H    -7.706231    -8.573110    -1.640863
O    -6.968925    -7.978542    -1.771413
H    -7.346870    -7.065786    -1.761688
H     4.153928     6.077853    -3.820310
O     4.815079     6.779134    -3.736160
H     5.651432     6.325248    -3.599355
H     0.086967    -8.174243    -5.197446
O     0.110614    -9.156944    -5.064439
H     0.260372    -9.521879    -5.936638
H    -2.341861    -8.674268    -2.695365
O    -2.108525    -8.410996    -3.605229
H    -1.462730    -9.030222    -3.964185
H     2.173595    -10.819007    -3.476127
O     2.127751    -9.864413    -3.453065
H     1.341886    -9.594157    -3.978836
H     6.827896     3.326091    -4.573368
O     6.885289     2.647031    -5.273418
H     6.091494     2.779751    -5.813744
H    -3.567757    -3.653455     7.740603
O    -3.648980    -2.895077     7.156620
H    -3.359981    -3.203496     6.269324
H    -0.648778    -3.367217    -6.710690
O    -0.018422    -2.635876    -6.719296
H    -0.499823    -1.859959    -6.378315
H     0.644223     0.471320     8.762768
O     0.650900    -0.242002     8.120692
H    -0.270692    -0.533352     8.035912
H    -5.841138     7.367455    -4.244405
O    -6.344535     6.747993    -4.804325
H    -6.631344     6.017901    -4.212130
H    -4.284796     9.103257    -3.259315
O    -4.820492     8.307308    -3.151513
H    -4.411358     7.828566    -2.412559
H    -9.719491     5.796791    -4.634016
O    -10.252783     4.992388    -4.468906
H    -11.133486     5.192781    -4.787784
H     2.769322     6.523419     6.141715
O     1.809257     6.620033     6.240358
H     1.465764     5.706660     6.138735
H     4.800135     8.548486     0.081612
O     5.117858     8.550072     1.002444
H     5.525384     7.686110     1.133726
H     4.132940    -7.429726    -4.328535
O     3.374190    -7.714743    -4.869784
H     3.094259    -8.555425    -4.492748
H     0.376997     8.666321     4.235399
O     1.053847     8.020815     4.007302
H     1.281460     7.529225     4.822388
H     5.228539     4.188790    -3.156118
O     6.190015     4.158882    -3.103986
H     6.399521     3.578041    -2.355849
H    -2.570495    -1.535887     7.590856
O    -2.065878    -0.738003     7.801982
H    -2.691002    -0.116434     8.184384
H    -9.034719     7.937478    -4.137541
O    -8.972350     7.351505    -4.893310
H    -8.015433     7.187487    -5.029484
H     3.524060    -8.978294     1.107065
O     2.847828    -8.345687     1.354936
H     3.322938    -7.540469     1.634254
H     3.582164     8.175072     1.827944
O     2.791569     7.611874     1.941850
H     2.346374     7.848758     2.768153
N    -7.745277    -2.421039     8.688811
H    -7.379628    -2.460341     7.795506
H    -8.031333    -1.501418     8.753217
