33

H     0.392157    -3.318497    -4.061005
O     1.297148    -3.059785    -4.335740
H     1.189368    -2.430378    -5.065847
H    -1.549112    -0.825293    -4.505879
O    -1.025706    -0.643364    -5.311668
H    -0.348124    -0.004735    -5.023410
H     2.244168    -4.637593    -6.791642
O     2.090126    -5.075100    -5.944333
H     1.793112    -4.350708    -5.340705
H     3.348024    -2.625096    -8.492184
O     3.245193    -3.113794    -7.654449
H     4.141005    -3.100217    -7.262390
H     3.197377    -0.943294    -5.575842
O     2.352609    -1.121289    -6.054604
H     2.585038    -1.862140    -6.662385
H     1.817555    -0.165246    -7.476508
O     1.349126     0.251600    -8.230358
H     1.327361    -0.445355    -8.906598
H     4.980233    -1.413030    -9.333995
O     4.036242    -1.155368    -9.490161
H     3.950491    -1.074292    -10.443212
H    -2.852649    -3.981603    -6.092770
O    -2.063620    -4.520525    -5.903307
H    -1.786961    -4.247829    -4.996834
H    -0.437487     0.446019    -7.997183
O    -1.382880     0.651415    -7.828520
H    -1.563815     0.196534    -6.990826
H    -0.780228    -3.429503    -6.757045
O    -0.148107    -2.713730    -6.943712
H    -0.511506    -1.958984    -6.439499
N     0.759945    -2.180043    -9.476365
H     0.032220    -2.186910    -10.103340
H     0.349238    -2.424793    -8.614818
