36

H     0.927449     5.019658     4.072564
O    -0.015166     5.262033     4.053327
H    -0.500074     4.475142     4.355532
H     1.734974     3.425847     6.863582
O     1.184595     3.981016     6.286252
H     0.358423     4.173206     6.802049
H    -1.748032     4.554780     7.503539
O    -0.829562     4.678441     7.845462
H    -0.720523     5.640220     7.980739
H    -0.660078     2.085128     7.674661
O    -1.271351     1.977521     6.925465
H    -2.138321     1.793703     7.313279
H     0.018613     3.412304     9.004109
O     0.185150     2.481326     9.251653
H    -0.623045     2.242079     9.765317
H     1.976015     2.035335     8.484717
O     2.740873     2.279372     7.939070
H     3.196979     1.434030     7.758669
H     4.509704     2.008613     5.105881
O     3.570161     2.264014     4.972641
H     3.148389     2.134973     5.828090
H     4.227010     4.778303     6.085081
O     4.259625     5.523472     5.473478
H     3.659474     5.217121     4.739270
H     0.184077     5.771370     10.418659
O    -0.592641     6.312219     10.618303
H    -0.692612     6.854056     9.819155
H     0.515674     7.480211     7.677956
O    -0.415952     7.434885     7.945123
H    -0.867141     7.352407     7.067266
H     2.852356     6.631797     6.145271
O     1.900290     6.698838     6.348420
H     1.598501     5.778311     6.191164
N     1.981021     5.209202     9.223584
H     2.079020     5.733878     8.416044
H     2.544464     4.439050     9.086042
