603

H     0.203382     3.022156    -0.672900
O     0.726314     2.353716    -1.165734
H     1.665446     2.484102    -0.893542
H    -0.064384    -1.315380     3.160288
O     0.324716    -0.615376     2.613756
H    -0.151940     0.198458     2.847633
H    -2.395243     2.398161    -0.527720
O    -2.185151     1.927725     0.296580
H    -2.196665     0.980170     0.071088
H    -4.655792     0.531988     2.194474
O    -4.968946    -0.403369     2.208661
H    -4.464053    -0.876398     1.539060
H     0.073064    -0.316922     0.958421
O    -0.128994    -0.080131     0.032680
H     0.212314     0.815581    -0.089913
H    -0.142933    -3.587044     3.784567
O    -0.421612    -2.758177     4.208919
H     0.228951    -2.585695     4.906159
H    -4.881924     2.515043     1.340556
O    -4.242593     2.103877     1.954623
H    -3.399591     2.088925     1.441742
H    -3.248910     3.883868    -2.203647
O    -2.510990     3.287220    -1.972745
H    -2.152245     3.000109    -2.832639
H    -0.115054    -3.818255     0.516832
O     0.224841    -2.998385     0.927602
H    -0.560208    -2.509748     1.239652
H    -2.365349    -1.543520     2.479310
O    -2.179707    -2.010120     1.637636
H    -2.437176    -1.425288     0.905894
H     2.080855    -1.450714    -1.115679
O     2.312687    -1.701167    -0.197565
H     1.525641    -2.132485     0.185694
H    -1.384301     1.813499     1.919946
O    -1.477603     1.415905     2.795909
H    -1.461008     2.128569     3.460614
H     0.216858    -2.713770    -1.562632
O    -0.541089    -2.104259    -1.613953
H    -0.360097    -1.376324    -0.982561
H    -3.427815    -2.930998    -0.383993
O    -2.711154    -3.433805    -0.791505
H    -1.998076    -2.808908    -1.017701
H     2.782088     0.124412     2.937847
O     2.880777    -0.057661     3.899715
H     2.972601     0.835304     4.303977
H    -3.531868     6.366378    -0.535373
O    -3.295041     7.028894    -1.235965
H    -3.153781     7.874475    -0.766280
H     3.908677     0.580257     1.189213
O     2.958375     0.397376     1.306262
H     2.721981    -0.355565     0.727078
H    -5.777423     0.826471    -1.594774
O    -4.867160     1.153447    -1.466348
H    -4.978724     1.982635    -0.956032
H    -1.210520     5.387452     2.215653
O    -1.834570     4.639178     2.100420
H    -1.910352     4.221125     2.963374
H     3.496918     2.758373     0.427754
O     3.247330     2.714829    -0.510930
H     3.581300     1.872885    -0.861867
H     1.501975    -4.706053    -2.242210
O     1.564278    -3.926247    -1.672031
H     2.358929    -3.465845    -2.023552
H    -0.917181    -0.096920    -2.540281
O    -0.285135     0.556996    -2.865474
H    -0.023970     1.139768    -2.129187
H     1.711108    -4.695318    -0.168526
O     1.816273    -5.329188     0.575556
H     1.355599    -6.143841     0.278848
H    -1.217463    -3.278723    -2.869624
O    -1.045353    -3.960249    -3.532307
H    -0.916138    -4.809057    -3.065826
H    -2.773897     3.298521     4.713049
O    -1.792878     3.295720     4.677752
H    -1.498528     2.895428     5.514172
H     0.965503     5.028603     4.079727
O     0.019044     5.259161     4.133161
H    -0.451020     4.455200     4.391791
H    -1.719064    -4.608453    -0.422619
O    -0.945162    -5.169367    -0.197504
H    -1.280606    -5.792881     0.460437
H    -3.921509     5.817026    -2.590088
O    -4.271476     4.982287    -2.919132
H    -4.117382     4.947358    -3.887506
H    -2.417819    -3.595568     1.940426
O    -2.477277    -4.513842     2.290274
H    -1.533703    -4.796797     2.377606
H    -4.687329    -2.998004    -2.886849
O    -3.834410    -3.227784    -3.293028
H    -3.501006    -4.022287    -2.830712
H     0.348321     1.369721     4.621518
O     0.851334     2.130848     4.286254
H     0.901874     2.789799     4.993084
H    -4.616701    -5.172457    -1.576737
O    -5.329068    -4.816202    -1.012242
H    -5.135177    -5.185967    -0.134067
H     2.338120    -6.490448    -4.031256
O     2.001818    -6.160724    -3.177893
H     2.435378    -6.735352    -2.514302
H     0.474025    -3.389746    -3.998109
O     1.275326    -3.020205    -4.421795
H     0.954564    -2.650746    -5.270622
H     1.975339    -1.758703     2.986183
O     2.130034    -2.690063     2.770809
H     1.446185    -2.905792     2.102812
H    -3.008352    -1.823581    -3.199618
O    -2.588830    -0.935977    -3.133048
H    -3.244792    -0.291912    -3.454719
H    -3.189700     4.962920     1.087800
O    -3.972879     5.334337     0.634189
H    -4.387754     5.892460     1.340377
H     0.882304     2.246659     2.596150
O     0.981095     2.240927     1.624813
H     1.709626     1.619614     1.459868
H     0.188318     5.647967    -0.753732
O     0.708207     6.310358    -1.263508
H     0.850086     7.110614    -0.708285
H     0.342400     7.028444     2.594645
O    -0.020433     6.646701     1.778143
H     0.644610     5.977432     1.515871
H    -2.471344     0.203212     3.350938
O    -2.690592    -0.611851     3.856030
H    -1.928255    -0.647367     4.476759
H    -0.882158     0.546032     6.032643
O    -0.610881     0.024467     5.258597
H     0.106411    -0.575936     5.543838
H     0.723628    -4.962485     1.945426
O     0.184801    -5.090499     2.753846
H     0.419446    -5.999426     3.024172
H    -2.034468    -8.215083     0.631194
O    -1.619892    -7.699546     1.352833
H    -2.282047    -7.650538     2.075244
H    -0.384769     6.853565    -2.320963
O    -1.132421     7.272255    -2.819490
H    -1.921510     7.145023    -2.254918
H    -1.112650     4.299369     0.580136
O    -0.740884     4.360425    -0.316386
H    -1.447715     4.117440    -0.948068
H    -4.403416     2.734018     3.516490
O    -4.401644     2.904775     4.480964
H    -4.483016     2.022160     4.890818
H     2.040102    -3.587710     4.250328
O     1.972779    -4.057317     5.104584
H     2.484269    -3.522813     5.733433
H     4.699395    -3.197616     0.842373
O     4.538301    -3.121122    -0.123970
H     3.678176    -2.646508    -0.206759
H    -2.716574    -0.762261    -1.341333
O    -3.046654    -0.494486    -0.466909
H    -3.844743     0.034679    -0.675230
H    -1.613575    -0.774080    -4.622482
O    -1.108947    -0.556721    -5.427214
H    -0.398827     0.040061    -5.143236
H     1.799989    -1.723509    -3.371407
O     1.891478    -0.976034    -2.748677
H     1.113633    -0.399937    -2.880061
H     3.676190    -3.126343     2.554385
O     4.635363    -3.353118     2.481211
H     4.690456    -4.313914     2.606196
H     3.444249    -6.125243     3.128261
O     3.799118    -5.919659     2.228672
H     3.057381    -5.581784     1.685559
H    -3.343565     1.595882    -4.168936
O    -4.188013     1.124519    -3.976866
H    -4.404123     1.270621    -3.020321
H    -5.081654     4.131491     0.077188
O    -5.519696     3.264826    -0.024457
H    -6.450159     3.383283    -0.306635
H     6.740267    -1.183320    -1.362784
O     5.968313    -1.033947    -0.810466
H     5.550784    -1.902316    -0.611747
H     4.601459    -3.173394    -2.467681
O     3.733214    -3.002674    -2.883184
H     3.736315    -3.622674    -3.638444
H     4.449812    -2.295796     5.624415
O     4.107502    -2.761457     6.417764
H     4.444304    -3.665978     6.336233
H    -0.751111     6.329769     5.080272
O    -1.348290     6.904784     5.618714
H    -1.363215     7.781778     5.177036
H     4.703286    -0.140201    -1.464838
O     3.934598     0.401005    -1.726736
H     3.242995    -0.200934    -2.056124
H    -0.746837     4.511849    -4.031676
O    -1.530651     5.053707    -4.238695
H    -1.379534     5.920892    -3.817118
H     0.658620     3.194246    -2.653465
O     0.663881     3.570610    -3.562045
H     0.712265     2.807059    -4.147375
H    -5.406646    -5.057916     1.856335
O    -4.763858    -5.765865     1.564429
H    -3.889762    -5.322921     1.663808
H     7.885142    -1.691259    -4.035257
O     7.628135    -1.377669    -3.135489
H     7.139773    -0.534773    -3.291847
H     3.708034    -5.079290    -5.285426
O     4.470621    -4.704086    -4.805944
H     4.856649    -5.414386    -4.260074
H    -3.772532     0.006388     4.945303
O    -4.374289     0.469328     5.577561
H    -5.033350    -0.188679     5.871171
H     3.476885    -5.948943    -0.514679
O     4.348978    -5.699643    -0.832972
H     4.423603    -4.737392    -0.689973
H     5.002232    -0.340939    -4.159226
O     4.466880    -1.052586    -4.548385
H     4.143049    -1.637019    -3.830165
H    -1.173258     1.559595    -3.929548
O    -1.825026     2.179382    -4.314430
H    -1.468820     2.510927    -5.161460
H     4.895775    -6.327004    -2.311671
O     5.229805    -6.649595    -3.177761
H     6.047529    -7.131058    -2.991324
H     8.749632    -5.091899    -2.919627
O     8.059695    -5.509732    -2.359944
H     8.094615    -6.467173    -2.461708
H     2.338407     4.713596     0.453756
O     1.759812     4.695033     1.225458
H     1.403854     3.774358     1.303724
H    -4.396748    -2.646500     4.247132
O    -5.291251    -2.309907     4.042489
H    -5.157143    -1.526054     3.468838
H    -5.816506    -3.105162     1.310761
O    -6.289458    -3.658054     1.987336
H    -6.102920    -3.198843     2.831648
H     1.695350     3.464396     6.865850
O     1.070683     3.978267     6.332360
H     0.288586     4.131312     6.905103
H     5.013312    -2.171373     3.618259
O     5.033379    -1.452345     4.281872
H     4.220803    -0.897570     4.125655
H     2.406669    -5.583476     4.844672
O     2.790873    -6.464423     4.586171
H     2.047862    -7.048005     4.405863
H     2.261010    -4.524908    -6.784829
O     2.093653    -5.013168    -5.968844
H     1.828902    -4.322817    -5.312911
H     6.449919    -4.105107    -0.502146
O     7.205003    -4.505543    -0.039737
H     7.711616    -4.928729    -0.760747
H    -1.716908     4.482456     7.707566
O    -0.817856     4.581513     8.092007
H    -0.637791     5.540937     8.115807
H    -5.126514     5.675640    -5.586892
O    -4.518035     4.912861    -5.607148
H    -3.761682     5.127845    -6.174192
H     3.281042    -2.535959    -8.433318
O     3.194439    -3.067883    -7.631450
H     4.071540    -3.043290    -7.203565
H    -0.668409     8.816125    -2.275066
O    -0.546131     9.644936    -1.756613
H     0.217222     9.471974    -1.180848
H     2.078761    -0.917430     5.215809
O     1.504998    -1.441606     5.803893
H     1.602651    -1.097912     6.701274
H     5.207209    -2.029878    -5.691704
O     5.553858    -2.795784    -6.213808
H     5.281523    -3.586015    -5.695557
H     5.712335    -5.214913     4.688655
O     5.190909    -5.130017     5.515890
H     4.470383    -5.763484     5.431082
H    -3.962790     1.135667     7.017535
O    -3.770533     1.610814     7.861274
H    -4.646592     1.996474     8.122723
H    -1.859188     9.603041    -0.741615
O    -2.718937     9.475626    -0.266071
H    -3.331339     10.103167    -0.653552
H    -5.952214     4.671911    -2.927974
O    -6.861338     4.550775    -3.270313
H    -6.770631     3.848615    -3.947612
H     0.113340    -7.075932    -1.132366
O     0.589317    -7.504641    -0.390888
H    -0.087834    -7.705698     0.263418
H    -7.639156     3.772051    -1.960194
O    -7.898522     3.184711    -1.219561
H    -7.755087     2.276347    -1.559686
H     3.988060    -0.893823     6.988931
O     3.994668     0.070384     6.979254
H     4.806220     0.361414     6.546949
H     2.254800     5.789375    -1.178601
O     3.190726     5.497878    -1.064992
H     3.367361     4.957740    -1.858236
H     6.564033    -5.930678     0.674211
O     6.197431    -6.666599     1.209527
H     5.292360    -6.391038     1.436573
H    -3.860719     4.719140     7.789615
O    -3.294611     4.256488     7.129942
H    -3.486443     3.313006     7.241533
H     5.777932    -7.947827     0.140929
O     5.491752    -8.634685    -0.497275
H     4.659233    -8.312733    -0.888210
H    -0.545977     2.036175     7.699488
O    -1.180210     1.969214     6.965328
H    -2.047929     1.827803     7.363482
H    -6.377999    -0.134948     1.076806
O    -6.696108    -0.225846     0.164177
H    -7.616256    -0.492115     0.181032
H    -5.364018    -3.076306    -0.578615
O    -5.118889    -2.378583     0.055340
H    -5.683655    -1.602162    -0.136626
H     4.316039     5.574346     0.319044
O     4.650588     5.675949     1.223902
H     3.955956     6.185680     1.676539
H    -9.038929    -1.764859    -2.236734
O    -8.491166    -1.562432    -1.450593
H    -8.617818    -2.299386    -0.813351
H    -5.530424     3.452349    -5.516590
O    -6.046172     2.741228    -5.100576
H    -5.378056     2.156877    -4.687805
H     3.179966    -0.896617    -5.651758
O     2.323695    -1.017472    -6.116818
H     2.409680    -1.866894    -6.589583
H     8.114009    -1.351690    -6.031684
O     8.123992    -2.215285    -5.574598
H     7.268097    -2.616813    -5.823774
H     7.616943     0.988093    -6.312887
O     7.428715     0.139434    -6.725688
H     6.447418     0.087814    -6.760481
H    -7.855428    -3.707039     0.946251
O    -8.531807    -3.604710     0.260114
H    -8.431110    -4.364563    -0.341101
H    -2.412204     8.725807     1.297892
O    -2.259880     8.137740     2.051022
H    -1.489086     7.585731     1.827677
H    -4.442931     6.423430     3.505429
O    -4.614943     6.848261     2.648721
H    -3.852693     7.435438     2.507687
H     3.397158     3.439831    -3.576485
O     3.242510     4.408951    -3.483184
H     2.277514     4.472248    -3.590133
H    -6.111967    -1.625264    -3.426824
O    -6.193455    -2.202418    -2.640899
H    -6.978750    -1.895618    -2.134238
H     6.476684     1.051197     4.738319
O     6.082453     1.590070     5.441154
H     6.269433     2.508709     5.149452
H     1.357311     1.711446    -5.818513
O     1.164233     1.115869    -5.063656
H     1.528947     0.253157    -5.333351
H    -2.475834     2.957232     10.492321
O    -2.263304     2.049671     10.218995
H    -2.861723     1.849418     9.487470
H     7.636498    -0.495431     3.081383
O     6.885826     0.079227     3.251015
H     6.195060    -0.522245     3.631332
H    -5.680865    -8.086389    -0.790187
O    -4.938849    -8.160363    -0.146211
H    -4.977462    -7.355090     0.392667
H    -5.178240    -0.137114    -4.702122
O    -5.795287    -0.849929    -4.938870
H    -6.633766    -0.409284    -5.137831
H     1.886088    -0.209214    -7.510504
O     1.682696     0.262113    -8.354357
H     2.259044    -0.142803    -9.007972
H     4.867707    -1.400936    -9.302408
O     3.942034    -1.172958    -9.583826
H     3.920752    -1.292471    -10.532633
H     7.576879    -2.568188     4.199235
O     7.722468    -2.604078     3.239583
H     7.230333    -3.396128     2.968691
H     6.735710    -5.893696     2.687082
O     6.798384    -5.217658     3.387542
H     7.674716    -5.302490     3.804202
H    -1.823449     8.938746     3.501010
O    -1.575202     9.244004     4.399005
H    -2.423651     9.376064     4.855208
H    -7.393593     1.546773    -5.236176
O    -7.967070     0.802293    -4.988925
H    -8.869364     1.200762    -4.912980
H     6.922217    -1.088127    -8.405285
O     6.340678    -1.809887    -8.667892
H     6.114514    -2.259821    -7.835459
H    -1.688270     6.226397    -7.017406
O    -2.085081     5.401038    -6.742550
H    -1.834935     5.271011    -5.779302
H     0.012038     3.307553     9.028473
O     0.209925     2.387900     9.283287
H    -0.587119     2.123362     9.791465
H     6.761470    -2.781988    -2.704918
O     6.232227    -3.526416    -2.362738
H     6.701254    -4.337092    -2.608940
H    -4.074294    -3.089681    -4.930395
O    -4.230928    -2.977722    -5.894760
H    -4.779155    -2.185426    -5.950668
H     1.992440     2.182208     8.468963
O     2.654639     2.295136     7.777455
H     3.078450     1.425601     7.662230
H    -6.899270    -5.217184    -1.384719
O    -7.816751    -5.485527    -1.622059
H    -7.952571    -5.086200    -2.506337
H    -3.822266     5.246577     5.705982
O    -3.791473     6.014260     5.114179
H    -2.857869     6.310461     5.206981
H    -7.883197     0.068547    -1.951212
O    -7.393961     0.792455    -2.364718
H    -7.623208     0.781411    -3.317954
H     5.842362     0.128875     0.411806
O     5.619949     0.850353     1.032726
H     6.131823     0.656350     1.844955
H    -6.205738     3.300092     7.408932
O    -6.075919     2.781964     8.237416
H    -6.676127     2.020547     8.150774
H     2.289050    -8.078052    -0.836923
O     2.970182    -8.067440    -1.530635
H     2.744839    -8.781909    -2.142955
H    -2.742300    -3.977565    -6.184531
O    -1.987484    -4.542229    -5.953509
H    -1.710413    -4.250530    -5.056582
H    -5.637523     3.749968     5.320780
O    -6.286491     4.145256     5.938804
H    -6.124527     5.089580     5.924928
H    -1.010701    -7.126738    -3.148675
O    -0.540490    -6.448952    -2.628420
H     0.368637    -6.385672    -3.005736
H     4.452746     2.016764     5.129318
O     3.510504     2.254839     5.010462
H     3.127714     2.271050     5.892987
H     4.116048     4.657723     6.300548
O     4.194459     5.387900     5.682196
H     3.626525     5.145922     4.912037
H     2.770072     3.614920     3.924627
O     2.590145     4.554528     3.758356
H     2.469931     4.652430     2.791960
H     9.396522     0.213394    -1.075567
O     8.591134     0.376005    -0.580845
H     8.416740    -0.442960    -0.087318
H    -2.090404     5.316662     10.657547
O    -2.811369     4.687269     10.890078
H    -3.028948     4.865010     11.805357
H     7.982001    -3.007624     0.326575
O     8.402273    -2.160117     0.580875
H     8.337651    -2.155144     1.543259
H     5.375091     3.665479     3.523557
O     6.031594     3.932195     4.188980
H     5.618834     4.650311     4.690451
H    -4.198805     5.016156     9.794388
O    -4.832898     5.165230     9.072810
H    -5.444005     4.416043     9.072293
H    -7.005481    -3.497612    -3.468232
O    -7.626091    -4.110366    -3.914800
H    -7.105227    -4.553238    -4.616976
H     0.037143     6.128158     10.774659
O    -0.828345     6.457699     10.528069
H    -0.714170     6.888201     9.661516
H     2.587145     1.487552    -4.102242
O     3.465060     1.842098    -3.864638
H     3.787324     1.327659    -3.094479
H    -6.960310    -0.229980     7.235385
O    -7.468840     0.548411     7.515339
H    -8.093412     0.730866     6.812246
H    -2.704414    -9.905266    -0.870525
O    -2.605019    -8.954910    -0.974839
H    -3.522854    -8.595319    -0.795792
H    -10.073843     3.052424    -4.880983
O    -10.189264     2.135076    -4.599163
H    -10.404133     2.219784    -3.649304
H    -2.047091    -2.965300     4.605841
O    -2.905696    -3.433074     4.700339
H    -2.898277    -4.030802     3.927896
H    -0.017461    -8.024832     2.487293
O     0.793806    -7.813686     2.977366
H     1.513860    -8.087553     2.375728
H     6.720775    -2.371978     6.393620
O     7.170830    -3.081214     5.929917
H     6.541988    -3.817118     5.892255
H    -5.257807    -2.012533     6.959627
O    -5.935262    -1.516722     6.475229
H    -5.920265    -1.894558     5.567267
H     0.828258     3.020688    -7.110480
O     1.746189     2.691076    -7.167454
H     1.732681     1.942905    -7.792603
H    -3.952973     8.748966     6.679155
O    -3.952500     8.745903     5.721790
H    -4.076858     7.818008     5.455019
H    -2.071149     10.301844    -2.734406
O    -2.973497     10.481936    -3.035044
H    -2.903691     11.115470    -3.748517
H     9.425392    -4.054970     4.042545
O     9.148037    -4.732807     4.666473
H     8.718187    -4.260595     5.390466
H    -0.729934    -6.009492    -5.829089
O    -0.025579    -6.575488    -5.496921
H     0.809412    -6.113485    -5.714640
H     1.820919     8.270029     0.663828
O     1.515846     8.590721    -0.213544
H     2.329714     8.629390    -0.745264
H     3.490975     2.921442    -6.661384
O     4.319553     2.632989    -6.252880
H     4.075934     2.359168    -5.343611
H     3.727599     7.120577    -1.232088
O     3.931728     8.056425    -1.446544
H     4.300003     8.000043    -2.340261
H     4.389754    -0.015640    -7.910130
O     4.767805     0.132015    -7.041365
H     4.585268     1.063849    -6.798367
H     6.032361     1.931558    -0.476983
O     6.596373     2.125358    -1.239550
H     7.421742     1.646527    -1.046654
H     6.697254    -8.431911    -1.603189
O     7.333092    -8.221101    -2.340203
H     7.699306    -9.055515    -2.628233
H    -5.296189    -5.807436    -5.388983
O    -5.915004    -5.135855    -5.701754
H    -5.364998    -4.367824    -5.941637
H     0.687638     7.171917     7.602926
O    -0.213532     7.198186     7.963519
H    -0.770043     7.212075     7.146730
H    -8.894680    -2.855401    -4.081991
O    -9.415141    -2.047137    -3.913238
H    -9.131936    -1.382601    -4.545029
H    -2.404263    -6.003177    -2.124279
O    -3.280815    -5.713103    -2.395156
H    -3.468052    -6.092091    -3.279409
H    -2.981187    -5.917716    -5.392155
O    -3.580787    -6.526118    -4.918103
H    -3.098158    -7.345989    -4.749256
H    -1.399622     3.712218    -6.976571
O    -0.858322     2.957395    -6.705281
H    -1.094349     2.171462    -7.254590
H    -0.210385     0.403796    -8.208846
O    -1.106246     0.638414    -7.924220
H    -1.279780     0.114752    -7.126004
H    -10.427055     4.031048    -2.716717
O    -10.492411     3.252806    -2.147718
H    -9.662314     3.228329    -1.640054
H     4.582135     4.079123     1.719168
O     4.375090     3.158175     1.998688
H     5.091166     2.582759     1.716786
H     6.483202     1.395291    -4.221585
O     6.181452     0.771528    -3.526787
H     6.213276     1.267410    -2.683310
H     9.639182    -2.223130    -0.933172
O     9.914583    -2.007971    -1.833161
H     9.112955    -1.671506    -2.275986
H     9.974262    -3.318519    -3.102118
O     9.707422    -3.971264    -3.776380
H     9.311778    -3.464820    -4.496369
H    -7.684356    -8.593321    -1.644210
O    -6.951577    -7.994127    -1.778724
H    -7.332876    -7.083449    -1.767401
H     4.152802     6.075610    -3.823154
O     4.812959     6.777865    -3.739243
H     5.650011     6.325130    -3.602860
H     0.105309    -8.182399    -5.202062
O     0.130576    -9.164967    -5.070662
H     0.281735    -9.528612    -5.943122
H    -2.317487    -8.688445    -2.695530
O    -2.090500    -8.422336    -3.607763
H    -1.443938    -9.039741    -3.968273
H     2.195132    -10.824320    -3.479878
O     2.153210    -9.869334    -3.464073
H     1.363390    -9.600531    -3.984382
H     6.830252     3.328213    -4.578484
O     6.888425     2.649636    -5.278917
H     6.094031     2.781104    -5.818661
H    -3.543172    -3.727123     7.737916
O    -3.664080    -2.943683     7.202750
H    -3.411771    -3.184129     6.286764
H    -0.637470    -3.376029    -6.713642
O    -0.008814    -2.643168    -6.723279
H    -0.491256    -1.868422    -6.381361
H     0.657274     0.460687     8.758930
O     0.664420    -0.254599     8.118920
H    -0.257412    -0.544601     8.032880
H    -5.844117     7.351038    -4.241858
O    -6.347069     6.731059    -4.801646
H    -6.632398     6.000403    -4.209487
H    -4.289862     9.088644    -3.257000
O    -4.824361     8.291882    -3.149229
H    -4.414195     7.813536    -2.410566
H    -9.720458     5.774749    -4.629940
O    -10.252580     4.969503    -4.465029
H    -11.133689     5.168959    -4.783361
H     2.772763     6.515874     6.139572
O     1.812635     6.611205     6.238722
H     1.470194     5.697423     6.137108
H     4.797443     8.545894     0.079170
O     5.115763     8.547750     0.999793
H     5.524363     7.684231     1.130691
H     4.151153    -7.431949    -4.335282
O     3.393384    -7.717396    -4.877573
H     3.113439    -8.558254    -4.500653
H     0.376198     8.655941     4.235235
O     1.054120     8.011737     4.006595
H     1.282649     7.520028     4.821363
H     5.230461     4.187808    -3.160159
O     6.192000     4.159601    -3.108352
H     6.402762     3.578584    -2.360684
H    -2.563460    -1.549189     7.585681
O    -2.053211    -0.755673     7.803016
H    -2.677627    -0.129022     8.178934
H    -9.038583     7.916338    -4.133225
O    -8.975791     7.330560    -4.889115
H    -8.018676     7.168074    -5.025855
H     3.553396    -8.982580     1.096350
O     2.878574    -8.350935     1.349442
H     3.351843    -7.543879     1.624374
H     3.580863     8.170252     1.826088
O     2.791116     7.605915     1.940061
H     2.345951     7.841764     2.766694
N    -3.558582    -7.543453     3.305229
H    -3.334093    -7.078100     4.116884
H    -4.187651    -6.949584     2.844237
