27

H     6.422416    -4.108411    -0.495546
O     7.200556    -4.503697    -0.062618
H     7.647462    -4.941017    -0.820146
H     7.648117    -0.190164     3.209818
O     6.791715     0.227124     3.311618
H     6.192926    -0.499664     3.632707
H     7.407079    -2.560974     4.196541
O     7.277852    -2.559005     3.232843
H     6.992757    -3.482493     3.063847
H     6.730201    -5.934631     2.714490
O     6.803753    -5.239455     3.398317
H     7.700626    -5.282646     3.799043
H     9.325169     0.237993    -1.057971
O     8.636345     0.491882    -0.436415
H     8.377333    -0.349049    -0.027506
H     8.033505    -3.031233     0.449070
O     8.457483    -2.225030     0.820819
H     8.037109    -2.166184     1.708307
H     9.668476    -4.263832     3.914347
O     9.190979    -4.769198     4.603974
H     8.873992    -4.106476     5.231039
H     9.670445    -2.230206    -1.087189
O     9.908787    -1.879550    -1.953235
H     9.042696    -1.637901    -2.356639
N     10.498248    -3.493188     2.398878
H     9.867283    -3.037688     1.805832
H     10.915073    -4.161163     1.846970
