39

H     3.418016    -5.806050    -0.623462
O     4.238409    -5.542818    -1.053288
H     4.374074    -4.610392    -0.777926
H     5.027135    -6.279103    -2.427079
O     5.359723    -6.681575    -3.256493
H     6.302079    -6.490377    -3.349006
H     8.691166    -4.848331    -3.708871
O     8.002963    -5.462247    -3.353331
H     8.426849    -5.835661    -2.558093
H     6.801845    -4.077558    -0.861227
O     7.163603    -4.409364     0.000626
H     7.885742    -5.010561    -0.253305
H     6.277418    -5.846858     0.671189
O     6.061880    -6.598000     1.267800
H     5.166790    -6.360078     1.590668
H     5.483202    -7.949129     0.266069
O     5.204408    -8.740263    -0.247759
H     4.476658    -8.414590    -0.819537
H     6.735629    -5.809191     2.722803
O     6.811569    -5.144881     3.434711
H     7.670910    -5.270215     3.880942
H     6.804081    -2.710883    -2.665774
O     6.353085    -3.536584    -2.378115
H     6.829731    -4.247660    -2.862988
H     7.894130    -2.879953     0.461862
O     8.398680    -2.081918     0.730175
H     8.307492    -2.095238     1.696437
H     6.651024    -8.802159    -1.117111
O     7.557704    -8.736685    -1.527238
H     7.986887    -9.567148    -1.305102
H     9.682956    -2.074409    -0.901404
O     9.920767    -1.779191    -1.797014
H     9.058087    -1.557305    -2.202780
H     10.061105    -3.067413    -3.279923
O     9.906509    -3.645547    -4.051517
H     9.471789    -3.076180    -4.707887
N     8.837529    -6.484893    -0.867566
H     9.752838    -6.665956    -0.640642
H     8.395916    -7.369991    -0.991985
