21
Coordinates from ORCA-job grain_mol_opt.QMRegion
  H   5.75540372272386     -5.29351131782007      4.58574192912155
  O   5.18321066708445     -5.15340081593740      5.37094260199796
  H   4.45015273918517     -5.77593446781630      5.28082111009006
  H   6.49369682623838     -5.89320780154686      0.58875303962080
  O   6.16147402060455     -6.62115075224352      1.16138672463578
  H   5.25275262496031     -6.34465938927381      1.39117527930299
  H   7.31860582129684     -2.52208986506413      4.11750540910068
  O   7.77962613946447     -2.67509872204889      3.27068412151965
  H   7.46731143683373     -3.57315497858375      3.03365255567855
  H   6.82570289920966     -5.90000759667543      2.58869019158934
  O   7.03541042703572     -5.32848422491339      3.35976695692917
  H   7.87408271164268     -5.68420195729402      3.74069601359481
  H   6.46174406384631     -2.24617166547830      6.40113077011769
  O   7.05729193128983     -2.87827145781779      5.98302729441674
  H   6.55611219644224     -3.70863653693738      6.00488578419825
  H   9.27880152424114     -3.06806893022007      4.19630466121544
  O   9.91350104587075     -3.38312589909941      4.88038649586006
  H   9.44295775161427     -3.18225287807867      5.69865291946198
  O   9.41339329996809     -6.01590256797194      4.47203564452739
  H   9.71000707606512     -5.08873850772246      4.66302264630103
  H   10.07277704854318     -6.36738618333725      3.86711828675416
