24
Coordinates from ORCA-job grain_mol_opt.QMRegion
  H   -0.78924875482716      6.40931173937999      4.92655629764617
  O   -1.38290353558643      6.95261619533379      5.50464100102199
  H   -1.52508282307418      7.81660677936260      5.05627383663865
  H   -2.42094478542008      8.75541235479206      1.25360901396068
  O   -2.25870151024853      8.24028469176092      2.06185671042492
  H   -1.47677739923417      7.68560659718524      1.87779968160946
  H   -2.27260203625375      9.14063043799800      3.62206445312946
  O   -2.20480985230960      9.36719731845320      4.57294484547244
  H   -3.09482604869150      9.21284435391732      4.95994092530911
  H   -4.57033623303610      8.51865441765101      6.73312467876372
  O   -4.55073517691696      8.47888770952806      5.77199178657116
  H   -4.38930425863153      7.52763248802134      5.56917181754114
  H   0.67068910818074      7.13142443194338      7.59835363382244
  O   -0.23919153678219      7.32486509137253      7.88497975559615
  H   -0.75280707039447      7.23262102221450      7.04427623314342
  H   2.85360953987820      6.36809361891383      6.25652406505661
  O   1.88791202066124      6.47093224480045      6.34765949038180
  H   1.56196400134369      5.54406434660968      6.25054080653986
  H   0.95968245613773      8.75148011317169      4.48687062580080
  O   1.18831379036890      7.92029228585297      4.02795849159508
  H   1.44744282800818      7.30647562607204      4.73865593581637
  O   0.28915524495318     10.05826511336788      5.60498874799210
  H   0.24925849184094      9.67519829321121      6.48890887288090
  H   -0.63571378280296     10.02840895698484      5.29317879853214
