603

H     0.211217     3.035505    -0.675680
O     0.733845     2.366459    -1.168619
H     1.672738     2.496388    -0.896116
H    -0.061179    -1.298809     3.157973
O     0.332428    -0.599292     2.614115
H    -0.145504     0.214912     2.845236
H    -2.387355     2.414364    -0.529443
O    -2.175702     1.944054     0.294470
H    -2.192211     0.996199     0.070004
H    -4.648594     0.552757     2.192103
O    -4.965026    -0.381001     2.206637
H    -4.461002    -0.858683     1.539664
H     0.077609    -0.302557     0.958106
O    -0.119831    -0.067740     0.030934
H     0.217219     0.829781    -0.090330
H    -0.137351    -3.569488     3.787273
O    -0.415634    -2.739027     4.207566
H     0.230876    -2.568034     4.908489
H    -4.873182     2.535437     1.338699
O    -4.233343     2.125744     1.953092
H    -3.390845     2.108743     1.439813
H    -3.240138     3.899963    -2.205868
O    -2.502639     3.302652    -1.975460
H    -2.144440     3.015179    -2.835283
H    -0.111208    -3.799533     0.512961
O     0.229315    -2.982032     0.930436
H    -0.557962    -2.495023     1.241792
H    -2.362621    -1.532083     2.479192
O    -2.173665    -1.999052     1.638806
H    -2.433528    -1.413011     0.908834
H     2.084293    -1.439246    -1.115975
O     2.317368    -1.691848    -0.198685
H     1.528288    -2.118588     0.186376
H    -1.376633     1.830636     1.918251
O    -1.467867     1.432788     2.794351
H    -1.452902     2.145934     3.458681
H     0.219865    -2.699977    -1.561733
O    -0.536088    -2.088821    -1.615946
H    -0.356207    -1.361358    -0.983403
H    -3.424458    -2.922151    -0.379392
O    -2.707020    -3.414486    -0.799647
H    -1.997725    -2.783505    -1.019849
H     2.785688     0.131452     2.937390
O     2.887901    -0.052048     3.899270
H     2.976767     0.844758     4.298696
H    -3.519568     6.383695    -0.538739
O    -3.282707     7.045528    -1.240119
H    -3.139945     7.891092    -0.770739
H     3.914442     0.590173     1.187030
O     2.965045     0.405852     1.306707
H     2.726607    -0.344822     0.725560
H    -5.771234     0.844836    -1.593466
O    -4.860674     1.172177    -1.468277
H    -4.971181     2.001395    -0.957756
H    -1.198013     5.403913     2.212340
O    -1.823372     4.656372     2.096737
H    -1.899307     4.238776     2.959853
H     3.503256     2.768751     0.424903
O     3.256615     2.724667    -0.514463
H     3.588661     1.881661    -0.863989
H     1.502094    -4.694064    -2.242430
O     1.567405    -3.916655    -1.669579
H     2.361138    -3.455241    -2.022354
H    -0.912647    -0.082445    -2.541463
O    -0.278212     0.569150    -2.866673
H    -0.017673     1.152942    -2.130807
H     1.712447    -4.680885    -0.171154
O     1.820638    -5.317423     0.571913
H     1.356723    -6.128758     0.276960
H    -1.216917    -3.263737    -2.870320
O    -1.043575    -3.947893    -3.530320
H    -0.916874    -4.794273    -3.060546
H    -2.765037     3.317012     4.710867
O    -1.784016     3.312399     4.675022
H    -1.489384     2.914054     5.511797
H     0.978825     5.046970     4.079729
O     0.030806     5.274108     4.127581
H    -0.437906     4.471156     4.389939
H    -1.717401    -4.646650    -0.360107
O    -0.951888    -5.187118    -0.075256
H    -1.299087    -5.873525     0.503725
H    -3.910431     5.833767    -2.592644
O    -4.261293     4.999445    -2.921936
H    -4.106944     4.964191    -3.890140
H    -2.415856    -3.683407     1.947398
O    -2.433406    -4.587310     2.324162
H    -1.493523    -4.825053     2.463690
H    -4.686066    -2.978549    -2.885654
O    -3.834072    -3.211802    -3.292534
H    -3.502469    -4.004763    -2.826720
H     0.352816     1.386835     4.620066
O     0.861111     2.144071     4.285124
H     0.911243     2.807160     4.988131
H    -4.643662    -5.168034    -1.555978
O    -5.344977    -4.814326    -0.981808
H    -5.130838    -5.167696    -0.097545
H     2.335766    -6.480178    -4.030973
O     1.999801    -6.150787    -3.177258
H     2.434967    -6.724018    -2.514088
H     0.475151    -3.377862    -3.997566
O     1.277425    -3.011329    -4.421888
H     0.956814    -2.640387    -5.270289
H     1.978292    -1.745574     2.986217
O     2.134514    -2.676789     2.770766
H     1.448295    -2.891420     2.104149
H    -3.006393    -1.807713    -3.199582
O    -2.584211    -0.921207    -3.135821
H    -3.240262    -0.275794    -3.455037
H    -3.178320     4.981150     1.085060
O    -3.961322     5.352979     0.631237
H    -4.375288     5.911965     1.337391
H     0.891050     2.262524     2.594319
O     0.987955     2.252906     1.622796
H     1.716560     1.631932     1.459289
H     0.200388     5.661366    -0.756974
O     0.720377     6.322721    -1.267914
H     0.863831     7.123131    -0.712728
H     0.355820     7.043026     2.591140
O    -0.007796     6.661796     1.774228
H     0.656806     5.991692     1.513196
H    -2.465001     0.222524     3.348831
O    -2.686190    -0.591605     3.854354
H    -1.925597    -0.630316     4.475526
H    -0.876910     0.564686     6.030687
O    -0.603790     0.041589     5.258225
H     0.108445    -0.561842     5.544515
H     0.724892    -4.987948     1.989051
O     0.184599    -5.096724     2.795003
H     0.328844    -6.017502     3.066853
H    -2.104494    -8.083795     0.462963
O    -1.781232    -7.595265     1.247522
H    -2.567163    -7.283531     1.703889
H    -0.372417     6.866644    -2.324674
O    -1.119849     7.285088    -2.824039
H    -1.908847     7.159767    -2.258873
H    -1.101508     4.315301     0.577528
O    -0.730417     4.374040    -0.319584
H    -1.438457     4.132552    -0.950228
H    -4.394825     2.754420     3.515145
O    -4.392997     2.925152     4.479697
H    -4.475328     2.042442     4.889343
H     2.040549    -3.574202     4.249595
O     1.978492    -4.046182     5.103362
H     2.483100    -3.508281     5.733965
H     4.701257    -3.187946     0.842432
O     4.539577    -3.113637    -0.123605
H     3.680260    -2.636766    -0.207108
H    -2.712674    -0.745271    -1.342798
O    -3.039185    -0.475404    -0.467988
H    -3.839725     0.050746    -0.674216
H    -1.610481    -0.760285    -4.623503
O    -1.104021    -0.545502    -5.428034
H    -0.394489     0.051988    -5.144137
H     1.802880    -1.712665    -3.372264
O     1.895912    -0.965663    -2.749499
H     1.118203    -0.388621    -2.879937
H     3.678487    -3.113821     2.554905
O     4.637958    -3.341819     2.483685
H     4.692432    -4.302449     2.607916
H     3.443056    -6.113647     3.129533
O     3.798076    -5.911977     2.229443
H     3.059468    -5.568569     1.686403
H    -3.337742     1.611513    -4.169638
O    -4.182141     1.140520    -3.977446
H    -4.398676     1.287315    -3.020724
H    -5.071440     4.151455     0.075113
O    -5.510149     3.285208    -0.027658
H    -6.440916     3.404434    -0.308006
H     6.743672    -1.177857    -1.364951
O     5.973622    -1.028049    -0.810043
H     5.554088    -1.895504    -0.612694
H     4.603328    -3.166063    -2.467705
O     3.734767    -2.995429    -2.882386
H     3.737231    -3.614479    -3.638350
H     4.454445    -2.290550     5.618846
O     4.113740    -2.750003     6.417178
H     4.444772    -3.656885     6.337309
H    -0.735190     6.346719     5.076783
O    -1.333762     6.921694     5.614589
H    -1.346273     7.798828     5.173163
H     4.708304    -0.133396    -1.466344
O     3.940514     0.408657    -1.728084
H     3.247580    -0.191697    -2.057647
H    -0.737056     4.524834    -4.034689
O    -1.520182     5.067257    -4.242571
H    -1.368727     5.934308    -3.820425
H     0.666851     3.206516    -2.656032
O     0.673139     3.581935    -3.565091
H     0.719683     2.817883    -4.149795
H    -5.369264    -5.188256     1.810204
O    -4.672835    -5.783447     1.455076
H    -3.832157    -5.366934     1.723999
H     7.888095    -1.688418    -4.036205
O     7.631294    -1.374407    -3.136431
H     7.144166    -0.530636    -3.293495
H     3.706926    -5.071726    -5.284840
O     4.470043    -4.698069    -4.804915
H     4.855186    -5.408729    -4.259244
H    -3.767720     0.026468     4.944208
O    -4.366755     0.490555     5.578304
H    -5.027309    -0.166888     5.870728
H     3.476192    -5.937910    -0.513698
O     4.349082    -5.691014    -0.831290
H     4.424790    -4.728386    -0.689657
H     5.006584    -0.334261    -4.161018
O     4.471345    -1.046519    -4.549424
H     4.145883    -1.628891    -3.830623
H    -1.166209     1.572914    -3.931260
O    -1.817508     2.192533    -4.316904
H    -1.460919     2.523978    -5.163700
H     4.894792    -6.319085    -2.309789
O     5.226572    -6.644755    -3.175510
H     6.044931    -7.125352    -2.989593
H     8.748986    -5.088860    -2.918787
O     8.058793    -5.506193    -2.358705
H     8.093105    -6.463562    -2.460505
H     2.347613     4.724509     0.449156
O     1.769919     4.706774     1.221305
H     1.412808     3.787478     1.300929
H    -4.399053    -2.626582     4.244307
O    -5.293262    -2.287412     4.042919
H    -5.157426    -1.506797     3.466276
H    -5.833038    -3.190877     1.332613
O    -6.294562    -3.747600     2.002191
H    -6.105494    -3.311052     2.851995
H     1.585097     3.368614     6.889220
O     1.028934     3.954007     6.354581
H     0.233272     4.112607     6.913642
H     5.018906    -2.157964     3.619252
O     5.035665    -1.439802     4.284543
H     4.221259    -0.886921     4.121363
H     2.408230    -5.568654     4.845191
O     2.788840    -6.452199     4.586574
H     2.043935    -7.034067     4.412859
H     2.260410    -4.517881    -6.783601
O     2.092729    -5.005352    -5.967111
H     1.828382    -4.313463    -5.312230
H     6.451118    -4.098276    -0.502233
O     7.204940    -4.500487    -0.039130
H     7.711507    -4.923859    -0.760168
H    -1.703332     4.503504     7.704578
O    -0.804609     4.599694     8.090849
H    -0.620455     5.559111     8.112113
H    -5.115831     5.692281    -5.589701
O    -4.508263     4.928751    -5.610420
H    -3.751631     5.143010    -6.177301
H     3.282122    -2.530675    -8.433344
O     3.195747    -3.062566    -7.631356
H     4.072910    -3.037515    -7.203743
H    -0.653410     8.829483    -2.280204
O    -0.530143     9.658569    -1.762679
H     0.232516     9.484690    -1.185974
H     2.080371    -0.902311     5.213905
O     1.514576    -1.431652     5.805563
H     1.599977    -1.081212     6.701323
H     5.209904    -2.024529    -5.692398
O     5.555820    -2.791300    -6.213866
H     5.282517    -3.580758    -5.695373
H     5.712825    -5.205255     4.688850
O     5.191618    -5.118681     5.516371
H     4.470728    -5.751751     5.432626
H    -3.955159     1.156820     7.016531
O    -3.761712     1.632387     7.860290
H    -4.637572     2.019288     8.121181
H    -1.843334     9.618559    -0.746990
O    -2.703552     9.492118    -0.272133
H    -3.315044     10.120498    -0.659586
H    -5.942357     4.690669    -2.930154
O    -6.851496     4.570764    -3.272956
H    -6.761675     3.867807    -3.949471
H     0.105388    -7.061176    -1.131327
O     0.570683    -7.496032    -0.383564
H    -0.107896    -7.690643     0.265999
H    -7.630096     3.792906    -1.962041
O    -7.890646     3.206546    -1.221159
H    -7.747517     2.297639    -1.559962
H     3.861403    -1.125342     7.110370
O     3.920079    -0.156015     7.168554
H     4.529739     0.099082     6.465913
H     2.266216     5.800458    -1.182425
O     3.202054     5.507635    -1.070482
H     3.377116     4.967186    -1.863556
H     6.563456    -5.923470     0.674877
O     6.196143    -6.658789     1.210933
H     5.291309    -6.382323     1.437261
H    -3.848695     4.741640     7.786122
O    -3.282631     4.277390     7.127611
H    -3.477300     3.334513     7.238672
H     5.775018    -7.940184     0.143908
O     5.486487    -8.628080    -0.492256
H     4.656711    -8.303371    -0.885972
H    -0.538948     2.057429     7.696631
O    -1.172326     1.984671     6.963333
H    -2.041017     1.847765     7.361388
H    -6.370835    -0.116161     1.076048
O    -6.692204    -0.201763     0.163785
H    -7.611126    -0.471778     0.183479
H    -5.361907    -3.060388    -0.573234
O    -5.108815    -2.357935     0.051882
H    -5.679155    -1.585123    -0.135444
H     4.324086     5.586665     0.313759
O     4.661045     5.683473     1.218104
H     3.969950     6.194758     1.675381
H    -9.036190    -1.743759    -2.234434
O    -8.487197    -1.541499    -1.449373
H    -8.613594    -2.277403    -0.810733
H    -5.521988     3.469538    -5.518295
O    -6.038537     2.758904    -5.102448
H    -5.371274     2.174251    -4.688778
H     3.183765    -0.889112    -5.653071
O     2.327237    -1.010043    -6.117455
H     2.412329    -1.859457    -6.590171
H     8.117452    -1.350088    -6.032504
O     8.126401    -2.213530    -5.574913
H     7.270034    -2.613943    -5.824258
H     7.622602     0.989911    -6.315582
O     7.433474     0.140863    -6.727245
H     6.452077     0.090797    -6.762517
H    -7.848408    -3.688055     0.949451
O    -8.527769    -3.582138     0.265906
H    -8.430134    -4.342121    -0.335157
H    -2.396236     8.742737     1.293113
O    -2.245954     8.154188     2.046107
H    -1.474582     7.601984     1.824512
H    -4.429637     6.443871     3.501878
O    -4.601735     6.868338     2.645008
H    -3.838639     7.454487     2.503529
H     3.405579     3.447797    -3.580401
O     3.252340     4.417015    -3.488385
H     2.287234     4.481690    -3.593896
H    -6.109659    -1.605062    -3.427025
O    -6.191419    -2.183709    -2.642429
H    -6.974688    -1.875959    -2.132973
H     6.581917     1.289127     4.588764
O     6.196778     1.911207     5.231420
H     6.348181     2.798851     4.809118
H     1.363794     1.721142    -5.820663
O     1.170458     1.125929    -5.065534
H     1.533688     0.262688    -5.334969
H    -2.465921     2.980011     10.489651
O    -2.253681     2.071919     10.217205
H    -2.852742     1.871532     9.485843
H     7.636932    -0.478964     3.084310
O     6.891078     0.099364     3.264647
H     6.199134    -0.502615     3.639439
H    -5.648464    -8.050968    -0.679767
O    -4.912628    -8.118817    -0.034315
H    -4.916007    -7.300993     0.486804
H    -5.173567    -0.119408    -4.702610
O    -5.790721    -0.831648    -4.940917
H    -6.629229    -0.390318    -5.138333
H     1.890048    -0.201329    -7.511813
O     1.687293     0.269373    -8.356016
H     2.263215    -0.136488    -9.009382
H     4.870341    -1.397758    -9.303507
O     3.944706    -1.169594    -9.584657
H     3.923326    -1.288063    -10.533595
H     7.579640    -2.560915     4.199140
O     7.724023    -2.595358     3.239502
H     7.232835    -3.387699     2.967788
H     6.735031    -5.885572     2.687672
O     6.798173    -5.209895     3.388572
H     7.674953    -5.295396     3.804346
H    -1.807483     8.955916     3.496550
O    -1.560628     9.262244     4.394376
H    -2.409303     9.394138     4.849875
H    -7.387315     1.566135    -5.236780
O    -7.961656     0.822087    -4.990234
H    -8.863341     1.221693    -4.913436
H     6.925282    -1.086147    -8.406787
O     6.343340    -1.807809    -8.668805
H     6.116640    -2.256665    -7.836009
H    -1.677319     6.238720    -7.021103
O    -2.074203     5.413392    -6.746247
H    -1.824612     5.283993    -5.782616
H     0.022745     3.324632     9.026004
O     0.218460     2.404399     9.282797
H    -0.582028     2.143481     9.789215
H     6.763270    -2.776794    -2.705359
O     6.233834    -3.520752    -2.361943
H     6.701796    -4.331731    -2.608981
H    -4.073566    -3.073713    -4.929127
O    -4.228904    -2.962253    -5.893855
H    -4.776537    -2.169450    -5.950235
H     1.901809     2.144749     8.595020
O     2.600638     2.147444     7.922274
H     2.840442     1.208680     7.771866
H    -6.898788    -5.198877    -1.375065
O    -7.814531    -5.469063    -1.619135
H    -7.949435    -5.067361    -2.502315
H    -3.809572     5.268163     5.702370
O    -3.777723     6.035691     5.110696
H    -2.843257     6.330527     5.203004
H    -7.877675     0.089984    -1.950058
O    -7.388448     0.813056    -2.365102
H    -7.618144     0.801076    -3.318004
H     5.848882     0.135982     0.410698
O     5.627992     0.857379     1.032176
H     6.138809     0.664092     1.844482
H    -6.195443     3.324465     7.407101
O    -6.066234     2.806535     8.235958
H    -6.667218     2.045620     8.149188
H     2.288093    -8.069320    -0.831176
O     2.964769    -8.057524    -1.527730
H     2.739198    -8.772069    -2.140106
H    -2.742254    -3.963612    -6.183252
O    -1.988209    -4.529493    -5.951806
H    -1.710761    -4.236716    -5.055426
H    -5.627452     3.772318     5.318799
O    -6.275413     4.169186     5.936994
H    -6.111667     5.113215     5.922439
H    -1.011500    -7.112926    -3.147868
O    -0.538223    -6.442684    -2.620931
H     0.368457    -6.373285    -3.003640
H     4.496479     2.105682     4.993106
O     3.527354     2.265123     4.914988
H     3.185889     2.271271     5.815615
H     4.473962     5.112630     6.102420
O     4.356120     5.799067     5.419103
H     3.774997     5.392223     4.734894
H     2.771259     3.701912     3.817688
O     2.600812     4.647544     3.674222
H     2.420012     4.744415     2.711317
H     9.401491     0.216525    -1.078122
O     8.597569     0.379958    -0.581291
H     8.421743    -0.439678    -0.089604
H    -2.075999     5.339080     10.653403
O    -2.796986     4.709767     10.887189
H    -3.015134     4.890034     11.801823
H     7.983966    -3.002901     0.326198
O     8.405196    -2.155943     0.580401
H     8.340778    -2.150030     1.542676
H     5.476188     3.914270     3.327292
O     6.205046     4.217426     3.897164
H     5.795045     4.950116     4.396194
H    -4.185811     5.039583     9.791348
O    -4.820490     5.189001     9.070484
H    -5.431939     4.440088     9.069928
H    -7.005103    -3.477354    -3.466120
O    -7.625998    -4.090079    -3.912825
H    -7.105854    -4.532710    -4.615325
H     0.052481     6.148183     10.769437
O    -0.813070     6.477984     10.523264
H    -0.697437     6.907839     9.656381
H     2.593281     1.496637    -4.104512
O     3.472361     1.848972    -3.867794
H     3.793250     1.335789    -3.096541
H    -6.953431    -0.204985     7.235261
O    -7.461681     0.573649     7.515715
H    -8.085423     0.756783     6.812023
H    -2.732630    -9.869333    -0.808892
O    -2.669617    -8.927839    -0.969660
H    -3.575360    -8.561170    -0.728447
H    -10.065743     3.074964    -4.881777
O    -10.182418     2.157837    -4.599751
H    -10.396693     2.243165    -3.649772
H    -2.051918    -3.013476     4.626162
O    -2.926035    -3.454387     4.698154
H    -2.921203    -4.072481     3.942003
H    -0.163799    -7.974250     2.501260
O     0.663333    -7.763263     2.947600
H     1.380553    -8.059931     2.359870
H     6.719040    -2.367656     6.397887
O     7.171443    -3.072708     5.930493
H     6.545089    -3.810644     5.890297
H    -5.253136    -1.989896     6.959365
O    -5.930207    -1.492688     6.475773
H    -5.915175    -1.870562     5.566899
H     0.836119     3.030234    -7.112960
O     1.753637     2.699227    -7.170145
H     1.738803     1.951099    -7.795157
H    -3.935034     8.770219     6.674541
O    -3.939257     8.766694     5.717183
H    -4.061457     7.838276     5.451216
H    -2.055193     10.316402    -2.739619
O    -2.957067     10.497398    -3.041286
H    -2.885831     11.130784    -3.754726
H     9.427208    -4.050132     4.041833
O     9.148199    -4.726942     4.666165
H     8.720311    -4.253508     5.390378
H    -0.731938    -5.998630    -5.826348
O    -0.027883    -6.564618    -5.493135
H     0.807218    -6.103294    -5.712789
H     1.835149     8.282326     0.659310
O     1.529746     8.602170    -0.219018
H     2.343909     8.640712    -0.750028
H     3.498794     2.927933    -6.664575
O     4.326966     2.637778    -6.256386
H     4.083132     2.365767    -5.346654
H     3.740049     7.130271    -1.237877
O     3.945358     8.065308    -1.454061
H     4.313544     8.007700    -2.347561
H     4.394076    -0.010693    -7.911740
O     4.772621     0.136580    -7.043129
H     4.590986     1.068821    -6.800351
H     6.039059     1.939465    -0.480815
O     6.604138     2.130461    -1.243053
H     7.428903     1.651286    -1.048940
H     6.693427    -8.427116    -1.600039
O     7.328403    -8.217093    -2.337512
H     7.694723    -9.051549    -2.625296
H    -5.298166    -5.789385    -5.387251
O    -5.915881    -5.117887    -5.701983
H    -5.365198    -4.349842    -5.940405
H     0.710718     7.186467     7.596923
O    -0.190637     7.212614     7.957953
H    -0.747839     7.230126     7.141746
H    -8.892933    -2.833374    -4.080384
O    -9.413323    -2.024807    -3.913057
H    -9.128241    -1.360515    -4.544264
H    -2.402129    -5.985389    -2.127012
O    -3.280734    -5.699569    -2.394563
H    -3.469236    -6.075124    -3.279697
H    -2.983507    -5.900640    -5.392249
O    -3.582462    -6.509997    -4.918253
H    -3.100191    -7.330035    -4.751577
H    -1.390640     3.724621    -6.978838
O    -0.849929     2.968995    -6.708312
H    -1.088059     2.183347    -7.256832
H    -0.205923     0.413558    -8.210035
O    -1.101622     0.648885    -7.925670
H    -1.275490     0.126474    -7.126693
H    -10.417386     4.055158    -2.717930
O    -10.483926     3.277043    -2.148932
H    -9.653730     3.251325    -1.641317
H     4.586743     4.092978     1.701135
O     4.385675     3.172819     1.991898
H     5.100184     2.595473     1.710333
H     6.489355     1.399393    -4.224562
O     6.187953     0.775883    -3.529137
H     6.219395     1.272992    -2.686349
H     9.641897    -2.220566    -0.934372
O     9.917235    -2.006672    -1.834604
H     9.116090    -1.669131    -2.277585
H     9.975557    -3.317724    -3.102803
O     9.707322    -3.970833    -3.776188
H     9.312646    -3.464321    -4.496720
H    -7.689973    -8.571311    -1.639128
O    -6.952303    -7.977102    -1.769057
H    -7.330053    -7.064072    -1.759975
H     4.163908     6.082769    -3.828284
O     4.825338     6.784018    -3.746677
H     5.661658     6.330655    -3.608128
H     0.101557    -8.170768    -5.199879
O     0.125966    -9.153496    -5.066710
H     0.274954    -9.518389    -5.939063
H    -2.325579    -8.671112    -2.696248
O    -2.092852    -8.408325    -3.606358
H    -1.446831    -9.027278    -3.965343
H     2.190119    -10.814551    -3.479701
O     2.143979    -9.859988    -3.456331
H     1.357907    -9.589887    -3.981982
H     6.838533     3.331559    -4.582430
O     6.895805     2.652131    -5.282266
H     6.101684     2.784738    -5.822166
H    -3.544071    -3.708002     7.736343
O    -3.657459    -2.920220     7.206087
H    -3.408947    -3.160554     6.287308
H    -0.637115    -3.364228    -6.713470
O    -0.006702    -2.632978    -6.722512
H    -0.487963    -1.856953    -6.381354
H     0.655880     0.473842     8.758784
O     0.670140    -0.241665     8.119434
H    -0.252366    -0.530910     8.030114
H    -5.831376     7.369002    -4.245530
O    -6.335122     6.749392    -4.805086
H    -6.621022     6.019192    -4.212532
H    -4.275099     9.105431    -3.261612
O    -4.810418     8.309222    -3.153755
H    -4.400889     7.830866    -2.414658
H    -9.709177     5.797126    -4.632621
O    -10.242171     4.992493    -4.467521
H    -11.123316     5.193042    -4.785028
H     2.780741     6.653181     6.100688
O     1.816521     6.688494     6.223576
H     1.542392     5.756982     6.115213
H     4.812970     8.553459     0.072372
O     5.133380     8.556859     0.991893
H     5.537694     7.692030     1.126708
H     4.147914    -7.424756    -4.333631
O     3.389085    -7.710313    -4.874412
H     3.109470    -8.550880    -4.496923
H     0.394910     8.670491     4.233645
O     1.067107     8.022469     4.000955
H     1.304639     7.533718     4.816615
H     5.239794     4.195002    -3.164419
O     6.201342     4.163892    -3.113750
H     6.411322     3.584624    -2.364655
H    -2.557192    -1.529256     7.585089
O    -2.045119    -0.736761     7.804430
H    -2.670534    -0.109061     8.177282
H    -9.025227     7.937712    -4.136453
O    -8.963031     7.352188    -4.892596
H    -8.006053     7.188238    -5.028879
H     3.543131    -8.972334     1.101763
O     2.867040    -8.340346     1.351705
H     3.342039    -7.534565     1.629136
H     3.595884     8.180623     1.824361
O     2.803630     7.619361     1.932419
H     2.363015     7.849553     2.763480
N     4.871061     3.835289     7.459333
H     5.529901     3.201547     7.153847
H     4.159776     3.285877     7.830859
