603

H     0.195928     3.029524    -0.676298
O     0.718548     2.361007    -1.169345
H     1.657076     2.487784    -0.893512
H    -0.095614    -1.309327     3.152337
O     0.299895    -0.609428     2.610145
H    -0.176548     0.204714     2.843264
H    -2.405074     2.412671    -0.538566
O    -2.197585     1.942193     0.286143
H    -2.211693     0.994335     0.061696
H    -4.677376     0.551476     2.179493
O    -4.998313    -0.380820     2.187985
H    -4.485032    -0.858004     1.527744
H     0.050272    -0.310895     0.953941
O    -0.145734    -0.072393     0.027010
H     0.197312     0.822859    -0.092508
H    -0.174050    -3.588428     3.772004
O    -0.468415    -2.763144     4.191925
H     0.170955    -2.585768     4.898977
H    -4.895449     2.536501     1.324109
O    -4.258841     2.124276     1.939803
H    -3.414496     2.105841     1.429582
H    -3.250274     3.901695    -2.215636
O    -2.514431     3.303139    -1.983589
H    -2.154323     3.015270    -2.842543
H    -0.143332    -3.807690     0.506736
O     0.198177    -2.988658     0.920850
H    -0.588802    -2.503415     1.235398
H    -2.394974    -1.531317     2.471423
O    -2.201973    -1.990274     1.628026
H    -2.459600    -1.405306     0.897541
H     2.061263    -1.448269    -1.115160
O     2.291362    -1.700812    -0.197470
H     1.501136    -2.128128     0.185402
H    -1.400327     1.827077     1.911327
O    -1.496170     1.429344     2.786717
H    -1.480310     2.140565     3.452786
H     0.195075    -2.705633    -1.566470
O    -0.559027    -2.092102    -1.623625
H    -0.379717    -1.367057    -0.988152
H    -3.446243    -2.919076    -0.388629
O    -2.738748    -3.413800    -0.821066
H    -2.021429    -2.788036    -1.030264
H     2.756774     0.123570     2.939914
O     2.854677    -0.058886     3.901597
H     2.945967     0.833623     4.306669
H    -3.530247     6.384319    -0.547045
O    -3.290158     7.046456    -1.247101
H    -3.147408     7.891352    -0.776673
H     3.889712     0.576595     1.194055
O     2.938528     0.397079     1.307741
H     2.701248    -0.355982     0.729111
H    -5.788923     0.851705    -1.613335
O    -4.878221     1.176831    -1.484662
H    -4.987996     2.005595    -0.973204
H    -1.218587     5.397887     2.209857
O    -1.844706     4.651870     2.092163
H    -1.923822     4.232944     2.954520
H     3.485526     2.756349     0.432454
O     3.239055     2.714038    -0.507168
H     3.570993     1.870841    -0.856911
H     1.476932    -4.700861    -2.246025
O     1.540715    -3.922117    -1.674962
H     2.337389    -3.463125    -2.023467
H    -0.928039    -0.085366    -2.546896
O    -0.294075     0.567161    -2.871171
H    -0.032718     1.148655    -2.133827
H     1.680660    -4.689545    -0.175036
O     1.789197    -5.327519     0.565989
H     1.322489    -6.137387     0.271563
H    -1.236089    -3.265256    -2.879174
O    -1.066210    -3.948843    -3.540746
H    -0.938718    -4.795867    -3.071551
H    -2.794139     3.312262     4.702265
O    -1.813056     3.308557     4.669386
H    -1.521845     2.905464     5.505761
H     0.951552     5.032237     4.079159
O     0.005694     5.265839     4.129561
H    -0.467528     4.463221     4.387114
H    -1.744834    -4.648697    -0.371893
O    -0.979470    -5.197031    -0.104779
H    -1.322497    -5.868647     0.494246
H    -3.916403     5.836767    -2.602620
O    -4.268231     5.003468    -2.933386
H    -4.111081     4.968427    -3.901168
H    -2.379197    -3.616254     1.917792
O    -2.400079    -4.559448     2.168680
H    -1.469458    -4.780733     2.380493
H    -4.705972    -2.974095    -2.905502
O    -3.854501    -3.209613    -3.311142
H    -3.522638    -4.001540    -2.843606
H     0.322901     1.374760     4.617477
O     0.829634     2.134990     4.283780
H     0.879101     2.793228     4.991146
H    -4.665277    -5.167893    -1.573289
O    -5.369069    -4.819934    -0.996339
H    -5.159014    -5.173199    -0.116243
H     2.312057    -6.487434    -4.033418
O     1.973544    -6.158074    -3.180836
H     2.405797    -6.732209    -2.516214
H     0.456676    -3.381509    -4.002863
O     1.260325    -3.015730    -4.425198
H     0.942931    -2.643522    -5.274015
H     1.944381    -1.757242     2.986838
O     2.099887    -2.687776     2.768591
H     1.413635    -2.901789     2.101887
H    -3.023091    -1.805855    -3.213343
O    -2.600867    -0.919859    -3.147551
H    -3.254659    -0.273184    -3.468336
H    -3.196195     4.979368     1.076438
O    -3.977002     5.353581     0.620808
H    -4.392050     5.912317     1.326450
H     0.863838     2.250905     2.594162
O     0.966376     2.246606     1.622980
H     1.692572     1.622114     1.460013
H     0.188519     5.655472    -0.756430
O     0.711363     6.316733    -1.264848
H     0.854182     7.116190    -0.708757
H     0.338019     7.034407     2.592840
O    -0.023480     6.654701     1.774809
H     0.639839     5.982892     1.514548
H    -2.492977     0.220820     3.341129
O    -2.724575    -0.591962     3.843359
H    -1.965758    -0.645645     4.465522
H    -0.915182     0.551522     6.025575
O    -0.638118     0.036699     5.249570
H     0.070542    -0.571643     5.537971
H     0.689930    -4.998147     1.985509
O     0.151108    -5.102249     2.792039
H     0.284637    -6.024305     3.063492
H    -2.131220    -8.129414     0.383478
O    -1.781231    -7.688337     1.190164
H    -2.553959    -7.381247     1.669901
H    -0.377362     6.863268    -2.324516
O    -1.122632     7.284131    -2.824972
H    -1.913433     7.159015    -2.262297
H    -1.119403     4.310212     0.573964
O    -0.745462     4.370882    -0.321767
H    -1.451432     4.129710    -0.954974
H    -4.422054     2.752619     3.502071
O    -4.422837     2.923543     4.466443
H    -4.506626     2.040587     4.875818
H     1.999950    -3.586265     4.249269
O     1.935743    -4.058522     5.102263
H     2.440536    -3.521639     5.734159
H     4.670101    -3.203564     0.848144
O     4.511955    -3.126735    -0.118806
H     3.653339    -2.649027    -0.203204
H    -2.732998    -0.745483    -1.354431
O    -3.064615    -0.475877    -0.481583
H    -3.860990     0.054762    -0.690831
H    -1.621791    -0.759588    -4.631946
O    -1.114091    -0.544374    -5.435540
H    -0.403476     0.050905    -5.149501
H     1.785949    -1.719136    -3.372589
O     1.878445    -0.971748    -2.750304
H     1.101834    -0.394058    -2.882160
H     3.642892    -3.129100     2.557779
O     4.601800    -3.359676     2.485833
H     4.654078    -4.320009     2.613092
H     3.400172    -6.128401     3.130534
O     3.758586    -5.927577     2.231028
H     3.022095    -5.581322     1.687089
H    -3.346486     1.614358    -4.181854
O    -4.192812     1.145298    -3.992257
H    -4.410853     1.291963    -3.035978
H    -5.087355     4.154090     0.060983
O    -5.527772     3.288950    -0.043626
H    -6.457325     3.410518    -0.326537
H     6.722683    -1.194437    -1.350918
O     5.949589    -1.043148    -0.800809
H     5.528950    -1.910275    -0.603155
H     4.580897    -3.177436    -2.461879
O     3.714435    -3.004327    -2.880005
H     3.717800    -3.623941    -3.635394
H     4.412169    -2.301522     5.629560
O     4.068871    -2.765308     6.423402
H     4.399910    -3.671765     6.341597
H    -0.763658     6.337832     5.075510
O    -1.360385     6.914812     5.612502
H    -1.371549     7.791820     5.171044
H     4.688828    -0.145096    -1.457775
O     3.922840     0.398500    -1.722443
H     3.229828    -0.201392    -2.052580
H    -0.741617     4.523225    -4.036981
O    -1.523277     5.067412    -4.246275
H    -1.371026     5.933877    -3.823531
H     0.656708     3.201456    -2.655646
O     0.665203     3.578000    -3.564369
H     0.712868     2.814299    -4.149514
H    -5.361431    -5.053126     1.753631
O    -4.695298    -5.756696     1.509353
H    -3.831041    -5.285693     1.573192
H     7.872775    -1.704375    -4.020969
O     7.614406    -1.390579    -3.121769
H     7.128767    -0.546150    -3.278817
H     3.689140    -5.080469    -5.282849
O     4.451630    -4.707822    -4.801400
H     4.834260    -5.419091    -4.254461
H    -3.801191     0.023775     4.932318
O    -4.406045     0.488777     5.561718
H    -5.063699    -0.170756     5.854917
H     3.444739    -5.949186    -0.511463
O     4.317532    -5.703296    -0.830666
H     4.395369    -4.741341    -0.685792
H     4.993932    -0.345658    -4.151916
O     4.457989    -1.056017    -4.542734
H     4.130291    -1.639142    -3.825206
H    -1.176698     1.572260    -3.936584
O    -1.826011     2.193328    -4.323812
H    -1.466212     2.524631    -5.169302
H     4.866097    -6.331611    -2.306721
O     5.200136    -6.656788    -3.172000
H     6.016940    -7.139124    -2.983821
H     8.724696    -5.107723    -2.904394
O     8.031940    -5.524118    -2.347019
H     8.064988    -6.481569    -2.448694
H     2.332888     4.714413     0.456277
O     1.752054     4.697795     1.226233
H     1.393678     3.777747     1.304140
H    -4.436502    -2.550276     4.148258
O    -5.348889    -2.234579     3.967413
H    -5.219116    -1.440096     3.401021
H    -5.865427    -3.158210     1.230776
O    -6.330000    -3.725997     1.899591
H    -6.135685    -3.255127     2.736829
H     1.670010     3.465132     6.866096
O     1.048953     3.982407     6.331610
H     0.265129     4.135772     6.901883
H     4.980105    -2.178446     3.624683
O     5.001505    -1.459459     4.288070
H     4.190139    -0.902562     4.130913
H     2.362572    -5.582205     4.843404
O     2.742614    -6.466029     4.584185
H     1.996532    -7.046188     4.408655
H     2.247537    -4.521836    -6.785315
O     2.075913    -5.009982    -5.970097
H     1.812033    -4.318428    -5.314695
H     6.421700    -4.115167    -0.491902
O     7.174311    -4.518659    -0.028089
H     7.681599    -4.942543    -0.748122
H    -1.741445     4.492289     7.699524
O    -0.843242     4.589566     8.086515
H    -0.660867     5.548342     8.110689
H    -5.114167     5.699756    -5.602857
O    -4.508095     4.935059    -5.622376
H    -3.749408     5.148343    -6.186942
H     3.277158    -2.535091    -8.430688
O     3.187332    -3.067466    -7.629452
H     4.063352    -3.044608    -7.199173
H    -0.655486     8.826543    -2.278869
O    -0.532077     9.654993    -1.760100
H     0.229129     9.479537    -1.182189
H     2.044136    -0.917457     5.216544
O     1.469175    -1.442620     5.802155
H     1.562106    -1.097664     6.699627
H     5.198059    -2.034754    -5.684180
O     5.543584    -2.801569    -6.205919
H     5.268127    -3.591057    -5.688392
H     5.667699    -5.224960     4.696067
O     5.145331    -5.139038     5.522418
H     4.422171    -5.769186     5.436053
H    -3.994341     1.152172     7.002915
O    -3.803454     1.629476     7.846291
H    -4.679201     2.015204     8.106257
H    -1.847868     9.616412    -0.748209
O    -2.709247     9.491334    -0.275068
H    -3.318867     10.120750    -0.663847
H    -5.949414     4.697591    -2.946312
O    -6.858017     4.579120    -3.291149
H    -6.767502     3.876869    -3.968308
H     0.072085    -7.065547    -1.138484
O     0.536884    -7.504274    -0.393749
H    -0.141564    -7.696407     0.257442
H    -7.641249     3.802236    -1.983136
O    -7.905105     3.215328    -1.243767
H    -7.762230     2.306792    -1.583363
H     3.949238    -0.898956     6.993686
O     3.960083     0.065236     6.984636
H     4.773425     0.353216     6.553825
H     2.256354     5.791220    -1.175947
O     3.191381     5.497507    -1.060587
H     3.368257     4.956647    -1.853202
H     6.527474    -5.941607     0.683632
O     6.157244    -6.677467     1.216642
H     5.252862    -6.398964     1.443123
H    -3.884843     4.735402     7.776246
O    -3.318482     4.272008     7.117625
H    -3.511839     3.328535     7.228946
H     5.737692    -7.956203     0.148366
O     5.450552    -8.642598    -0.490341
H     4.621485    -8.316486    -0.884550
H    -0.577102     2.042329     7.693365
O    -1.209994     1.981730     6.957835
H    -2.078386     1.837796     7.353511
H    -6.395582    -0.109759     1.054232
O    -6.715195    -0.199395     0.141304
H    -7.636345    -0.461483     0.159244
H    -5.389167    -3.049584    -0.604902
O    -5.143988    -2.355908     0.031837
H    -5.705904    -1.576200    -0.155312
H     4.313038     5.569982     0.326692
O     4.646100     5.670756     1.232171
H     3.951535     6.181585     1.683666
H    -9.056035    -1.731015    -2.265376
O    -8.509576    -1.531035    -1.477703
H    -8.640519    -2.266411    -0.840447
H    -5.524691     3.477582    -5.534179
O    -6.043421     2.767421    -5.120184
H    -5.377817     2.181507    -4.705441
H     3.173972    -0.895851    -5.648955
O     2.318625    -1.014456    -6.116378
H     2.403635    -1.863869    -6.589173
H     8.107570    -1.364897    -6.016693
O     8.114038    -2.228853    -5.560192
H     7.257513    -2.627636    -5.811464
H     7.617905     0.976199    -6.298333
O     7.428268     0.128286    -6.712061
H     6.446902     0.079571    -6.749183
H    -7.880820    -3.681081     0.920757
O    -8.558367    -3.575393     0.236726
H    -8.459967    -4.333098    -0.367443
H    -2.408327     8.740042     1.289631
O    -2.259721     8.151339     2.042938
H    -1.489895     7.597106     1.821589
H    -4.451408     6.442500     3.491348
O    -4.620082     6.868357     2.634398
H    -3.855669     7.453234     2.495646
H     3.398165     3.439232    -3.571844
O     3.246067     4.408784    -3.479127
H     2.281421     4.474761    -3.587846
H    -6.125242    -1.598856    -3.447779
O    -6.211807    -2.177731    -2.663420
H    -6.995818    -1.866615    -2.157348
H     6.450140     1.039392     4.749567
O     6.056360     1.579211     5.451851
H     6.245930     2.497440     5.160637
H     1.359071     1.717507    -5.819600
O     1.162056     1.122082    -5.065730
H     1.525437     0.258568    -5.334346
H    -2.512030     2.969189     10.481360
O    -2.300746     2.061101     10.209217
H    -2.897148     1.861569     9.475755
H     7.609569    -0.510531     3.095565
O     6.860312     0.066578     3.262886
H     6.166385    -0.532633     3.641621
H    -5.689619    -8.106422    -0.775437
O    -5.013033    -8.181971    -0.063265
H    -4.984334    -7.309331     0.363062
H    -5.184547    -0.113152    -4.719738
O    -5.803184    -0.824213    -4.958170
H    -6.639634    -0.380734    -5.159445
H     1.886674    -0.204222    -7.510786
O     1.686580     0.267585    -8.355172
H     2.263702    -0.138594    -9.007303
H     4.869328    -1.404106    -9.295549
O     3.944918    -1.173836    -9.579265
H     3.925940    -1.292231    -10.528252
H     7.541133    -2.582758     4.212312
O     7.689774    -2.619413     3.253105
H     7.195229    -3.409426     2.980807
H     6.695173    -5.906075     2.696778
O     6.757512    -5.230344     3.397297
H     7.632392    -5.317156     3.816674
H    -1.824840     8.950612     3.494301
O    -1.577995     9.255509     4.392783
H    -2.427200     9.388976     4.847202
H    -7.393664     1.577090    -5.259125
O    -7.970119     0.834073    -5.014173
H    -8.871258     1.235519    -4.939867
H     6.922405    -1.097101    -8.393306
O     6.339674    -1.817295    -8.657613
H     6.110072    -2.266644    -7.825808
H    -1.670841     6.241293    -7.024555
O    -2.070613     5.416913    -6.751049
H    -1.823194     5.285943    -5.787089
H    -0.019332     3.312718     9.024272
O     0.176729     2.393165     9.280620
H    -0.622767     2.129625     9.785419
H     6.742579    -2.792180    -2.693660
O     6.210412    -3.535527    -2.353583
H     6.678252    -4.347186    -2.598507
H    -4.088229    -3.068395    -4.947316
O    -4.242816    -2.956257    -5.912057
H    -4.787560    -2.161616    -5.969001
H     1.958992     2.181788     8.469092
O     2.624182     2.293421     7.780145
H     3.044864     1.422309     7.665269
H    -6.927651    -5.191318    -1.404610
O    -7.843705    -5.456954    -1.648459
H    -7.975504    -5.055787    -2.532898
H    -3.839462     5.263456     5.692802
O    -3.805184     6.031662     5.101666
H    -2.870828     6.324590     5.196764
H    -7.895919     0.099866    -1.975719
O    -7.403575     0.821852    -2.388526
H    -7.630543     0.811802    -3.342215
H     5.824023     0.119979     0.421760
O     5.602785     0.842426     1.041808
H     6.111260     0.646410     1.855720
H    -6.233819     3.323157     7.388357
O    -6.108505     2.805503     8.217775
H    -6.708641     2.044460     8.129412
H     2.255067    -8.077782    -0.834743
O     2.932049    -8.066635    -1.531376
H     2.706199    -8.781161    -2.143404
H    -2.755627    -3.959691    -6.197715
O    -2.004312    -4.528032    -5.964077
H    -1.727623    -4.236033    -5.066961
H    -5.657932     3.771415     5.303104
O    -6.308518     4.169167     5.918147
H    -6.141848     5.112708     5.906525
H    -1.038354    -7.113813    -3.163218
O    -0.567745    -6.443255    -2.635367
H     0.342226    -6.377189    -3.010751
H     4.427603     2.010254     5.136641
O     3.486808     2.252044     5.015177
H     3.101079     2.267822     5.896475
H     4.095298     4.651861     6.307521
O     4.178147     5.381787     5.689416
H     3.611072     5.141798     4.917934
H     2.751942     3.613778     3.928203
O     2.576336     4.554147     3.761294
H     2.458196     4.652211     2.794728
H     9.382328     0.194772    -1.056686
O     8.575847     0.359441    -0.564495
H     8.397890    -0.458796    -0.071068
H    -2.119869     5.327690     10.648620
O    -2.843527     4.700770     10.879237
H    -3.062026     4.878056     11.794354
H     7.954805    -3.022537     0.341036
O     8.377190    -2.176494     0.596373
H     8.309776    -2.171166     1.558605
H     5.358554     3.656819     3.533638
O     6.014763     3.922145     4.199903
H     5.602156     4.640327     4.701506
H    -4.227208     5.032794     9.780086
O    -4.859665     5.184240     9.057566
H    -5.472021     4.436064     9.054687
H    -7.024915    -3.467594    -3.492496
O    -7.645247    -4.081413    -3.938590
H    -7.124215    -4.523632    -4.641100
H     0.009571     6.132055     10.771525
O    -0.853914     6.465499     10.523147
H    -0.736143     6.895114     9.656626
H     2.583927     1.489556    -4.099883
O     3.462520     1.841188    -3.860699
H     3.781150     1.325998    -3.089412
H    -6.994159    -0.208407     7.213047
O    -7.502355     0.570220     7.492586
H    -8.124110     0.756163     6.787856
H    -2.771963    -9.869750    -0.823894
O    -2.709203    -8.928042    -0.983142
H    -3.608763    -8.558833    -0.744478
H    -10.070580     3.089974    -4.910486
O    -10.189479     2.172972    -4.628925
H    -10.406174     2.258637    -3.679497
H    -2.087661    -3.110953     4.580646
O    -2.984938    -3.380774     4.879618
H    -3.138718    -4.276673     4.526746
H    -0.204087    -7.979680     2.497640
O     0.625345    -7.772116     2.941941
H     1.339130    -8.070209     2.351674
H     6.680335    -2.385138     6.404345
O     7.129575    -3.095675     5.941742
H     6.498294    -3.829417     5.902587
H    -5.336605    -1.983055     6.979522
O    -6.007496    -1.494659     6.477215
H    -5.950132    -1.842090     5.563073
H     0.837036     3.028624    -7.112326
O     1.754182     2.696459    -7.167447
H     1.739920     1.948471    -7.792722
H    -3.962386     8.765847     6.667001
O    -3.960221     8.763143     5.709626
H    -4.085917     7.835460     5.442466
H    -2.053039     10.316343    -2.741091
O    -2.953985     10.499176    -3.044322
H    -2.880246     11.132817    -3.757298
H     9.385619    -4.074961     4.060235
O     9.104954    -4.752583     4.682933
H     8.674249    -4.279644     5.406000
H    -0.749825    -5.998029    -5.837579
O    -0.048084    -6.566224    -5.503486
H     0.788759    -6.106127    -5.719138
H     1.824648     8.272526     0.666052
O     1.522907     8.594590    -0.212032
H     2.338302     8.630898    -0.741527
H     3.498377     2.921616    -6.656589
O     4.325055     2.630218    -6.246340
H     4.078407     2.357184    -5.337578
H     3.733030     7.118393    -1.225411
O     3.940516     8.053705    -1.439232
H     4.310807     7.996407    -2.332028
H     4.391789    -0.017421    -7.904208
O     4.768153     0.128543    -7.034441
H     4.587708     1.060820    -6.791297
H     6.021240     1.922617    -0.466324
O     6.587683     2.114809    -1.227580
H     7.411205     1.633794    -1.032467
H     6.659676    -8.442638    -1.593654
O     7.297153    -8.233643    -2.329653
H     7.662903    -9.068800    -2.616044
H    -5.316429    -5.782070    -5.410122
O    -5.933217    -5.108927    -5.723410
H    -5.380725    -4.341953    -5.961600
H     0.671279     7.175413     7.601717
O    -0.230645     7.205301     7.960111
H    -0.785140     7.219949     7.141979
H    -8.910027    -2.820962    -4.110922
O    -9.428848    -2.011703    -3.942596
H    -9.142410    -1.346994    -4.572792
H    -2.430999    -5.982717    -2.140490
O    -3.310644    -5.699676    -2.409265
H    -3.493945    -6.072122    -3.296969
H    -3.002787    -5.897162    -5.407682
O    -3.604445    -6.505370    -4.935334
H    -3.124105    -7.326639    -4.768485
H    -1.389177     3.726567    -6.983724
O    -0.850575     2.969994    -6.711887
H    -1.087935     2.185018    -7.261812
H    -0.206356     0.415031    -8.214204
O    -1.102516     0.651523    -7.932101
H    -1.279047     0.128749    -7.133920
H    -10.426629     4.069171    -2.746402
O    -10.495518     3.290591    -2.178288
H    -9.666702     3.263797    -1.668441
H     4.571784     4.073522     1.727018
O     4.361173     3.153098     2.005247
H     5.076446     2.575659     1.725548
H     6.480107     1.386118    -4.209701
O     6.175060     0.762743    -3.516043
H     6.205766     1.258234    -2.672211
H     9.617402    -2.242330    -0.914488
O     9.895552    -2.028547    -1.813981
H     9.096174    -1.688849    -2.258443
H     9.954686    -3.338341    -3.082812
O     9.687833    -3.990058    -3.758147
H     9.295475    -3.482070    -4.478853
H    -7.721976    -8.564717    -1.673270
O    -6.982686    -7.968724    -1.783206
H    -7.362213    -7.057057    -1.786954
H     4.161855     6.072913    -3.815615
O     4.823902     6.773256    -3.730500
H     5.659212     6.318123    -3.591441
H     0.077866    -8.172618    -5.210027
O     0.098375    -9.155546    -5.077747
H     0.251227    -9.520027    -5.949604
H    -2.354586    -8.671243    -2.712454
O    -2.123645    -8.409184    -3.622896
H    -1.475167    -9.026287    -3.980989
H     2.156871    -10.821641    -3.485925
O     2.113036    -9.866952    -3.463774
H     1.327974    -9.595197    -3.989692
H     6.833453     3.317976    -4.565114
O     6.891568     2.639646    -5.265854
H     6.098800     2.773581    -5.807372
H    -3.385838    -3.550128     7.986016
O    -3.693363    -2.889769     7.361633
H    -3.344187    -3.158339     6.471376
H    -0.648204    -3.363691    -6.721892
O    -0.017216    -2.633006    -6.729429
H    -0.497798    -1.856717    -6.388047
H     0.617991     0.463365     8.756047
O     0.625786    -0.251104     8.115241
H    -0.296994    -0.538987     8.026254
H    -5.830386     7.376748    -4.259121
O    -6.333861     6.758445    -4.820347
H    -6.622537     6.028366    -4.229077
H    -4.273782     9.109595    -3.269793
O    -4.810828     8.314320    -3.163729
H    -4.403878     7.834579    -2.424120
H    -9.710171     5.811405    -4.657430
O    -10.245015     5.007536    -4.494462
H    -11.124840     5.209934    -4.814449
H     2.758060     6.513831     6.143592
O     1.797987     6.612056     6.240074
H     1.453224     5.698981     6.138105
H     4.803731     8.540020     0.089000
O     5.120205     8.540956     1.010239
H     5.525277     7.675928     1.142224
H     4.123133    -7.434029    -4.332584
O     3.365537    -7.718165    -4.876022
H     3.083484    -8.558300    -4.499333
H     0.372327     8.661200     4.234127
O     1.049381     8.015591     4.006899
H     1.274173     7.522480     4.821950
H     5.232607     4.181979    -3.150535
O     6.193950     4.150614    -3.096688
H     6.401068     3.569047    -2.348397
H    -2.598464    -1.534872     7.577262
O    -2.087369    -0.739360     7.793747
H    -2.714427    -0.115581     8.169048
H    -9.023684     7.950857    -4.158246
O    -8.960628     7.365203    -4.914216
H    -8.003568     7.200098    -5.048479
H     3.505468    -8.984716     1.099902
O     2.827935    -8.352160     1.343928
H     3.300921    -7.547455     1.628186
H     3.581595     8.167531     1.833013
O     2.789864     7.605590     1.944291
H     2.343247     7.841922     2.770041
N    -4.168726    -5.971620     4.362810
H    -4.420237    -6.028259     3.422354
H    -5.005216    -5.939443     4.836068
