603

H     0.194416     3.032882    -0.654531
O     0.714740     2.365316    -1.151457
H     1.655168     2.494755    -0.883515
H    -0.054920    -1.310606     3.171418
O     0.332476    -0.609521     2.624874
H    -0.143722     0.203493     2.862706
H    -2.403372     2.409892    -0.497177
O    -2.188255     1.938450     0.325161
H    -2.202615     0.990974     0.098960
H    -4.649891     0.540567     2.232123
O    -4.968167    -0.392698     2.243573
H    -4.462971    -0.869718     1.576954
H     0.070393    -0.309185     0.972054
O    -0.133904    -0.071141     0.046970
H     0.205321     0.825443    -0.074753
H    -0.127381    -3.581830     3.795714
O    -0.404852    -2.752604     4.218878
H     0.245413    -2.582091     4.916908
H    -4.879062     2.525374     1.384780
O    -4.236423     2.114001     1.995043
H    -3.396436     2.098357     1.477497
H    -3.265559     3.899313    -2.166169
O    -2.527042     3.301541    -1.940122
H    -2.172442     3.016296    -2.802264
H    -0.118315    -3.805147     0.520420
O     0.223229    -2.987764     0.937129
H    -0.562499    -2.502608     1.254779
H    -2.360421    -1.543337     2.503578
O    -2.177717    -2.008526     1.660748
H    -2.439175    -1.419889     0.933617
H     2.067517    -1.439571    -1.114436
O     2.304963    -1.693426    -0.198751
H     1.518604    -2.122317     0.189336
H    -1.379351     1.821883     1.944272
O    -1.467320     1.422442     2.819862
H    -1.448547     2.133434     3.486252
H     0.201681    -2.700329    -1.553683
O    -0.555100    -2.089549    -1.602380
H    -0.372123    -1.363642    -0.968879
H    -3.435279    -2.926917    -0.352246
O    -2.721403    -3.418170    -0.779407
H    -2.012312    -2.787153    -1.000567
H     2.790469     0.127790     2.938008
O     2.895245    -0.056303     3.898811
H     2.988545     0.835991     4.304405
H    -3.538191     6.378690    -0.491178
O    -3.304323     7.041743    -1.192015
H    -3.160712     7.886895    -0.722181
H     3.908627     0.586259     1.184101
O     2.958964     0.403310     1.305651
H     2.719100    -0.348399     0.726504
H    -5.792329     0.840583    -1.543953
O    -4.881727     1.169032    -1.425933
H    -4.988077     1.997239    -0.912953
H    -1.203268     5.393914     2.245558
O    -1.828170     4.646104     2.132031
H    -1.899887     4.226468     2.994597
H     3.493622     2.766082     0.428705
O     3.239438     2.723998    -0.508846
H     3.571125     1.882437    -0.862613
H     1.481911    -4.692212    -2.245248
O     1.548764    -3.915528    -1.671579
H     2.341065    -3.453271    -2.026563
H    -0.936730    -0.081696    -2.520768
O    -0.305890     0.571994    -2.848661
H    -0.040749     1.153770    -2.112891
H     1.702267    -4.683399    -0.175145
O     1.814002    -5.321248     0.566098
H     1.349924    -6.132595     0.271694
H    -1.240492    -3.262286    -2.855450
O    -1.071947    -3.944672    -3.518498
H    -0.940950    -4.792176    -3.051738
H    -2.754557     3.300847     4.747464
O    -1.773656     3.298344     4.707063
H    -1.475257     2.896029     5.541101
H     0.982261     5.030571     4.097859
O     0.036242     5.261525     4.156196
H    -0.433063     4.457498     4.416151
H    -1.728829    -4.651402    -0.346408
O    -0.961455    -5.191803    -0.067055
H    -1.304451    -5.879709     0.512687
H    -3.940303     5.832853    -2.545396
O    -4.292176     4.998852    -2.874366
H    -4.143089     4.965865    -3.843800
H    -2.415516    -3.693808     1.967097
O    -2.431175    -4.598751     2.341188
H    -1.490304    -4.836212     2.475918
H    -4.710037    -2.980570    -2.852048
O    -3.860814    -3.211377    -3.265294
H    -3.524863    -4.005092    -2.803558
H     0.366213     1.371367     4.635987
O     0.869021     2.132445     4.299775
H     0.922238     2.790465     5.007243
H    -4.660303    -5.171117    -1.528740
O    -5.359293    -4.819117    -0.950449
H    -5.140164    -5.174562    -0.068035
H     2.307071    -6.473833    -4.041736
O     1.974709    -6.146675    -3.185735
H     2.413980    -6.720867    -2.525963
H     0.444880    -3.372698    -3.992322
O     1.244653    -3.004411    -4.419650
H     0.920016    -2.631850    -5.265745
H     1.984127    -1.754815     2.988353
O     2.138317    -2.685356     2.768798
H     1.448614    -2.898405     2.105661
H    -3.033075    -1.806929    -3.172788
O    -2.611884    -0.920042    -3.108558
H    -3.269365    -0.274515    -3.424105
H    -3.188459     4.971872     1.127758
O    -3.973912     5.344532     0.679014
H    -4.384522     5.901865     1.388493
H     0.889848     2.251365     2.609723
O     0.984191     2.247635     1.637851
H     1.711243     1.625965     1.468292
H     0.180498     5.659026    -0.730386
O     0.698319     6.321760    -1.241777
H     0.843232     7.121242    -0.686177
H     0.352293     7.033465     2.619365
O    -0.014681     6.653309     1.803978
H     0.648726     5.984190     1.537321
H    -2.459660     0.209370     3.377465
O    -2.678091    -0.605823     3.882123
H    -1.913791    -0.645568     4.499368
H    -0.857819     0.545282     6.052301
O    -0.588621     0.026792     5.275498
H     0.127638    -0.576019     5.556873
H     0.726026    -4.995922     1.989851
O     0.188309    -5.107236     2.797154
H     0.336105    -6.027913     3.067435
H    -2.109142    -8.090206     0.470862
O    -1.782367    -7.602854     1.254606
H    -2.565970    -7.293409     1.716420
H    -0.400369     6.867351    -2.292759
O    -1.150291     7.287041    -2.786790
H    -1.936600     7.159605    -2.218396
H    -1.114122     4.308590     0.607714
O    -0.747112     4.370751    -0.290737
H    -1.457640     4.129626    -0.918900
H    -4.390105     2.739101     3.559151
O    -4.383484     2.908293     4.523857
H    -4.463031     2.024686     4.932424
H     2.053150    -3.586076     4.247597
O     1.994818    -4.059648     5.100452
H     2.505659    -3.523677     5.728702
H     4.695493    -3.191644     0.826349
O     4.528816    -3.114849    -0.139013
H     3.669099    -2.638081    -0.216355
H    -2.730429    -0.748241    -1.315113
O    -3.053389    -0.480470    -0.438308
H    -3.854554     0.046125    -0.639422
H    -1.644379    -0.755018    -4.601031
O    -1.143394    -0.537596    -5.408125
H    -0.432189     0.059384    -5.127149
H     1.775083    -1.708114    -3.369873
O     1.870202    -0.962228    -2.746082
H     1.091833    -0.385369    -2.871965
H     3.681187    -3.122447     2.544320
O     4.639920    -3.350405     2.464756
H     4.696477    -4.310630     2.590032
H     3.450414    -6.122601     3.114233
O     3.800137    -5.920349     2.212003
H     3.059011    -5.574345     1.674366
H    -3.371271     1.614167    -4.135012
O    -4.215106     1.142983    -3.939225
H    -4.425718     1.287912    -2.981203
H    -5.082019     4.144934     0.127397
O    -5.521476     3.278837     0.024450
H    -6.454926     3.399532    -0.244073
H     6.726096    -1.174335    -1.385475
O     5.956956    -1.026291    -0.828895
H     5.540196    -1.894745    -0.629940
H     4.580395    -3.161475    -2.482625
O     3.709697    -2.990519    -2.892834
H     3.709090    -3.608158    -3.649938
H     4.471106    -2.297713     5.611632
O     4.133265    -2.764858     6.406025
H     4.469039    -3.669300     6.321151
H    -0.728502     6.330915     5.109377
O    -1.322499     6.905269     5.651976
H    -1.339414     7.783041     5.211909
H     4.688992    -0.130196    -1.475089
O     3.919358     0.411725    -1.732310
H     3.225522    -0.189099    -2.058915
H    -0.772395     4.529335    -4.005467
O    -1.557562     5.071149    -4.207008
H    -1.404104     5.937842    -3.785172
H     0.639731     3.208468    -2.636956
O     0.640630     3.586205    -3.545014
H     0.685278     2.823650    -4.131870
H    -5.368998    -5.199664     1.841640
O    -4.674264    -5.792615     1.480080
H    -3.832069    -5.377245     1.746670
H     7.856676    -1.678320    -4.064687
O     7.604126    -1.366564    -3.163019
H     7.115700    -0.522833    -3.315340
H     3.671428    -5.062120    -5.299498
O     4.436419    -4.688548    -4.822665
H     4.825111    -5.399962    -4.280354
H    -3.754140     0.008758     4.979226
O    -4.351751     0.471445     5.615760
H    -5.009093    -0.187752     5.911455
H     3.465228    -5.938721    -0.528409
O     4.335523    -5.690403    -0.851887
H     4.412196    -4.728251    -0.707203
H     4.973923    -0.325963    -4.171552
O     4.436604    -1.037226    -4.558905
H     4.115748    -1.621840    -3.839770
H    -1.199586     1.576935    -3.906376
O    -1.853686     2.196636    -4.287292
H    -1.501546     2.530553    -5.135119
H     4.874623    -6.314947    -2.333825
O     5.202122    -6.638539    -3.202001
H     6.021736    -7.118992    -3.021171
H     8.725029    -5.080954    -2.959572
O     8.037462    -5.500039    -2.397610
H     8.072434    -6.457195    -2.501119
H     2.336291     4.721411     0.464003
O     1.761910     4.701753     1.238789
H     1.405770     3.781139     1.317366
H    -4.387658    -2.643318     4.276030
O    -5.283222    -2.304504     4.079034
H    -5.150512    -1.522012     3.504522
H    -5.836314    -3.201362     1.370687
O    -6.296149    -3.758808     2.040621
H    -6.101120    -3.325455     2.890867
H     1.725739     3.461339     6.877269
O     1.098841     3.976703     6.347893
H     0.319573     4.128848     6.924804
H     5.024383    -2.169773     3.602516
O     5.048286    -1.452457     4.267527
H     4.235059    -0.896639     4.116659
H     2.424456    -5.580885     4.836724
O     2.803526    -6.464061     4.573048
H     2.057923    -7.046064     4.403103
H     2.217071    -4.505045    -6.789853
O     2.053106    -4.994630    -5.973873
H     1.792349    -4.304494    -5.315830
H     6.438783    -4.097351    -0.528960
O     7.195146    -4.500424    -0.070884
H     7.698339    -4.921786    -0.795355
H    -1.681447     4.479170     7.738526
O    -0.780246     4.577381     8.118273
H    -0.599883     5.536694     8.142932
H    -5.162153     5.694887    -5.534271
O    -4.553217     4.931841    -5.559885
H    -3.800759     5.148504    -6.131175
H     3.229103    -2.513622    -8.440182
O     3.146846    -3.047084    -7.638803
H     4.026235    -3.022753    -7.215619
H    -0.682594     8.830243    -2.242099
O    -0.557130     9.657896    -1.722672
H     0.208998     9.483558    -1.151104
H     2.098681    -0.917357     5.218163
O     1.529658    -1.444344     5.808256
H     1.629177    -1.100489     6.705432
H     5.170126    -2.012448    -5.707880
O     5.513534    -2.777812    -6.233031
H     5.243825    -3.568620    -5.714669
H     5.727841    -5.216338     4.663831
O     5.210707    -5.132790     5.493876
H     4.489420    -5.765545     5.412255
H    -3.932418     1.134437     7.054257
O    -3.735347     1.609187     7.897421
H    -4.609962     1.993971     8.164367
H    -1.865690     9.614891    -0.701278
O    -2.722805     9.486560    -0.221368
H    -3.337161     10.115184    -0.604066
H    -5.970092     4.691021    -2.874186
O    -6.884487     4.562142    -3.199318
H    -6.799310     3.870333    -3.887538
H     0.091663    -7.062613    -1.132202
O     0.561064    -7.499086    -0.388130
H    -0.113628    -7.695411     0.264923
H    -7.628129     3.783496    -1.886062
O    -7.907567     3.198104    -1.148778
H    -7.763926     2.289212    -1.486563
H     4.016988    -0.898061     6.980963
O     4.024494     0.066108     6.972797
H     4.833897     0.357360     6.536668
H     2.244722     5.800111    -1.165736
O     3.181176     5.507880    -1.057727
H     3.353244     4.969175    -1.852874
H     6.558270    -5.925211     0.643547
O     6.193590    -6.662582     1.178526
H     5.290370    -6.386445     1.411599
H    -3.824581     4.716955     7.832042
O    -3.262046     4.255335     7.168660
H    -3.453739     3.311643     7.279560
H     5.768334    -7.941193     0.112076
O     5.476883    -8.627880    -0.524290
H     4.645085    -8.302434    -0.912972
H    -0.512007     2.032422     7.720109
O    -1.149925     1.967797     6.989045
H    -2.015673     1.825193     7.391151
H    -6.373228    -0.127800     1.121790
O    -6.705954    -0.207070     0.212539
H    -7.621750    -0.486082     0.242405
H    -5.373672    -3.067696    -0.536924
O    -5.119738    -2.364899     0.087618
H    -5.690481    -1.592412    -0.097301
H     4.313479     5.581543     0.320685
O     4.652925     5.681147     1.223946
H     3.961022     6.190560     1.681172
H    -9.057567    -1.751700    -2.178221
O    -8.509678    -1.545322    -1.393743
H    -8.626770    -2.284921    -0.756752
H    -5.569263     3.474423    -5.465606
O    -6.080769     2.761314    -5.047314
H    -5.408034     2.177809    -4.640961
H     3.143707    -0.878304    -5.655599
O     2.284848    -0.998765    -6.115886
H     2.368512    -1.846911    -6.591229
H     8.075574    -1.335351    -6.061499
O     8.087389    -2.199849    -5.606064
H     7.230041    -2.600316    -5.851749
H     7.578019     1.005005    -6.336390
O     7.387126     0.156968    -6.749287
H     6.405624     0.106257    -6.779376
H    -7.854097    -3.697196     0.995057
O    -8.535862    -3.589603     0.313922
H    -8.441088    -4.349612    -0.287862
H    -2.408397     8.734333     1.339756
O    -2.252305     8.144843     2.091050
H    -1.482847     7.593075     1.862678
H    -4.428261     6.428889     3.554045
O    -4.604529     6.854822     2.698720
H    -3.843179     7.442494     2.554821
H     3.373415     3.454203    -3.573960
O     3.219847     4.423160    -3.478306
H     2.254300     4.487302    -3.579888
H    -6.136902    -1.605650    -3.384624
O    -6.215947    -2.184804    -2.599973
H    -6.995986    -1.878229    -2.086260
H     6.495338     1.049785     4.720488
O     6.105169     1.587248     5.426569
H     6.290454     2.506501     5.135545
H     1.320951     1.730910    -5.808238
O     1.131569     1.133783    -5.053578
H     1.494768     0.271624    -5.326673
H    -2.426715     2.949657     10.524323
O    -2.215647     2.042551     10.248435
H    -2.817909     1.843442     9.519693
H     7.645641    -0.495053     3.055088
O     6.896135     0.079710     3.229246
H     6.206928    -0.521609     3.612580
H    -5.658695    -8.057185    -0.653318
O    -4.919829    -8.125895    -0.011667
H    -4.920926    -7.309240     0.511249
H    -5.207074    -0.116675    -4.661794
O    -5.825665    -0.828951    -4.896814
H    -6.663790    -0.387268    -5.093937
H     1.840328    -0.187270    -7.506292
O     1.632726     0.285314    -8.348286
H     2.205581    -0.118503    -9.005619
H     4.811958    -1.377745    -9.315772
O     3.884781    -1.149409    -9.591727
H     3.858720    -1.265861    -10.540804
H     7.590851    -2.569352     4.169411
O     7.731363    -2.604075     3.208930
H     7.237189    -3.395198     2.939381
H     6.740877    -5.892418     2.655657
O     6.806263    -5.217932     3.357127
H     7.684906    -5.302531     3.769318
H    -1.807778     8.943227     3.540199
O    -1.554365     9.246635     4.437374
H    -2.400209     9.378503     4.898437
H    -7.425735     1.572395    -5.178840
O    -7.993404     0.822211    -4.932903
H    -8.902737     1.202955    -4.870781
H     6.871409    -1.066772    -8.428843
O     6.288320    -1.787999    -8.689500
H     6.066350    -2.239088    -7.856634
H    -1.730367     6.248745    -6.983511
O    -2.124241     5.422180    -6.708067
H    -1.870273     5.291638    -5.746060
H     0.053703     3.301397     9.048212
O     0.252935     2.381393     9.300748
H    -0.541830     2.116101     9.812173
H     6.739160    -2.770463    -2.730361
O     6.211458    -3.515619    -2.386987
H     6.679236    -4.325693    -2.637322
H    -4.108162    -3.069647    -4.900253
O    -4.269222    -2.956450    -5.863860
H    -4.816230    -2.163056    -5.916128
H     2.030373     2.176457     8.476353
O     2.689498     2.290095     7.781973
H     3.111811     1.420383     7.663050
H    -6.914238    -5.204359    -1.336323
O    -7.831939    -5.472605    -1.575834
H    -7.970845    -5.070660    -2.458098
H    -3.796906     5.247967     5.749155
O    -3.768778     6.016576     5.158367
H    -2.834633     6.312262     5.247036
H    -7.896718     0.079108    -1.894797
O    -7.420319     0.811764    -2.308287
H    -7.643915     0.796161    -3.262395
H     5.838052     0.135037     0.396020
O     5.619305     0.855597     1.019126
H     6.135016     0.660102     1.828538
H    -6.172677     3.299427     7.460899
O    -6.038916     2.780270     8.288029
H    -6.639232     2.018678     8.203107
H     2.277326    -8.070211    -0.845202
O     2.949502    -8.055977    -1.546040
H     2.721426    -8.769725    -2.158359
H    -2.782716    -3.955560    -6.163101
O    -2.027603    -4.521792    -5.936390
H    -1.745479    -4.230787    -5.040866
H    -5.614414     3.752724     5.371175
O    -6.260943     4.147487     5.992203
H    -6.098199     5.091704     5.979769
H    -1.034983    -7.110348    -3.143788
O    -0.560089    -6.440654    -2.617730
H     0.345195    -6.370342    -3.003886
H     4.473538     2.015274     5.124258
O     3.530888     2.253802     5.010451
H     3.152386     2.268970     5.894864
H     4.143931     4.654421     6.301735
O     4.220373     5.385246     5.683899
H     3.647878     5.145262     4.916472
H     2.785121     3.616366     3.930792
O     2.605529     4.556462     3.767054
H     2.479866     4.656105     2.801529
H     9.384574     0.220689    -1.109451
O     8.581299     0.382155    -0.610983
H     8.409494    -0.437265    -0.117431
H    -2.039226     5.308723     10.691782
O    -2.759267     4.679305     10.926978
H    -2.972145     4.855645     11.843624
H     7.975417    -3.002750     0.294461
O     8.397429    -2.155986     0.547763
H     8.337895    -2.152150     1.510492
H     5.388229     3.666480     3.516437
O     6.048527     3.931459     4.178778
H     5.638685     4.648713     4.683970
H    -4.152365     5.010514     9.838987
O    -4.790098     5.161337     9.121005
H    -5.401545     4.412408     9.122177
H    -7.032062    -3.478192    -3.422935
O    -7.656603    -4.087887    -3.868540
H    -7.139564    -4.530208    -4.573892
H     0.089405     6.119063     10.799180
O    -0.777195     6.449510     10.557774
H    -0.667446     6.881379     9.691331
H     2.559646     1.503323    -4.098625
O     3.439270     1.856509    -3.865431
H     3.765053     1.341188    -3.097422
H    -6.928479    -0.230072     7.285457
O    -7.435780     0.547779     7.569820
H    -8.063646     0.731689     6.870065
H    -2.741912    -9.873452    -0.801745
O    -2.680904    -8.931565    -0.961029
H    -3.585407    -8.566303    -0.714146
H    -10.053931     2.897912    -4.974813
O    -10.316412     2.037993    -4.606796
H    -10.296643     2.239263    -3.646230
H    -2.037947    -3.029412     4.645428
O    -2.912389    -3.469851     4.719808
H    -2.910163    -4.087421     3.963333
H    -0.157807    -7.984388     2.499231
O     0.671147    -7.773374     2.942025
H     1.386053    -8.068155     2.350504
H     6.746840    -2.376138     6.368202
O     7.193584    -3.085224     5.901025
H     6.563887    -3.820458     5.866184
H    -5.228407    -2.012975     6.996832
O    -5.908314    -1.515281     6.517505
H    -5.897473    -1.891590     5.608076
H     0.786024     3.042799    -7.095033
O     1.703374     2.712300    -7.157065
H     1.686150     1.965779    -7.783984
H    -3.921379     8.748895     6.729110
O    -3.924781     8.747302     5.771755
H    -4.051499     7.820014     5.504059
H    -2.086601     10.317607    -2.692120
O    -2.990911     10.498023    -2.986408
H    -2.926377     11.132882    -3.699200
H     9.437605    -4.057501     4.000817
O     9.162120    -4.736447     4.624398
H     8.737231    -4.265093     5.351908
H    -0.769521    -5.989983    -5.821154
O    -0.063710    -6.556253    -5.492268
H     0.770170    -6.094149    -5.714998
H     1.821665     8.277615     0.683201
O     1.512238     8.599804    -0.192061
H     2.323327     8.639364    -0.727901
H     3.451215     2.941289    -6.660100
O     4.281637     2.651044    -6.256606
H     4.042589     2.376379    -5.346387
H     3.717888     7.130669    -1.224794
O     3.921559     8.066756    -1.438556
H     4.284830     8.011968    -2.334392
H     4.342153     0.006019    -7.918643
O     4.724476     0.151528    -7.051385
H     4.543860     1.083153    -6.805778
H     6.024045     1.939528    -0.490641
O     6.584053     2.133821    -1.256037
H     7.410332     1.654734    -1.068044
H     6.677910    -8.423646    -1.637564
O     7.308666    -8.211690    -2.378185
H     7.674236    -9.045308    -2.669313
H    -5.334763    -5.784974    -5.357279
O    -5.954634    -5.112426    -5.665653
H    -5.405032    -4.344481    -5.906983
H     0.723804     7.168084     7.625947
O    -0.175422     7.194186     7.991316
H    -0.736256     7.209621     7.177510
H    -8.924869    -2.835231    -4.023542
O    -9.442648    -2.024363    -3.856809
H    -9.157461    -1.364770    -4.492768
H    -2.421652    -5.985663    -2.112787
O    -3.301822    -5.699913    -2.375474
H    -3.494081    -6.073975    -3.260460
H    -3.019194    -5.894587    -5.374776
O    -3.615868    -6.505015    -4.899225
H    -3.132419    -7.325246    -4.736628
H    -1.440346     3.735527    -6.947768
O    -0.898364     2.979349    -6.681107
H    -1.138250     2.195130    -7.230865
H    -0.259499     0.428256    -8.192809
O    -1.153950     0.662053    -7.903238
H    -1.323071     0.137676    -7.104592
H    -10.062235     4.130065    -2.813934
O    -10.351627     3.432404    -2.192779
H    -9.599148     3.342217    -1.573796
H     4.585953     4.083840     1.716787
O     4.380165     3.162252     1.995322
H     5.094901     2.587431     1.709002
H     6.455154     1.409134    -4.238491
O     6.157050     0.784047    -3.543202
H     6.193147     1.278691    -2.699120
H     9.626498    -2.216504    -0.972675
O     9.897050    -2.000962    -1.874026
H     9.093581    -1.662298    -2.311830
H     9.949652    -3.308818    -3.145102
O     9.678588    -3.960340    -3.818940
H     9.280020    -3.452248    -4.536176
H    -7.704428    -8.577150    -1.604345
O    -6.968570    -7.981163    -1.736377
H    -7.347387    -7.068997    -1.722585
H     4.129068     6.090093    -3.819921
O     4.790113     6.791749    -3.738193
H     5.627634     6.338408    -3.606917
H     0.068132    -8.163057    -5.203503
O     0.093057    -9.146069    -5.072678
H     0.238576    -9.509005    -5.946433
H    -2.345514    -8.670733    -2.688813
O    -2.118605    -8.405490    -3.599655
H    -1.473650    -9.022646    -3.963734
H     2.167200    -10.809424    -3.500157
O     2.120063    -9.854979    -3.474144
H     1.331124    -9.584339    -3.995067
H     6.801431     3.342386    -4.593838
O     6.855444     2.664789    -5.295603
H     6.058494     2.798020    -5.831143
H    -3.513522    -3.731040     7.761749
O    -3.632650    -2.943217     7.232781
H    -3.386506    -3.181177     6.312828
H    -0.680732    -3.353638    -6.702587
O    -0.051175    -2.621717    -6.713097
H    -0.531221    -1.846851    -6.367783
H     0.695893     0.454367     8.770254
O     0.699612    -0.259904     8.129054
H    -0.222998    -0.549213     8.047186
H    -5.866623     7.372107    -4.183059
O    -6.367933     6.750100    -4.741833
H    -6.661087     6.024495    -4.149271
H    -4.309161     9.106559    -3.204566
O    -4.842420     8.309313    -3.094810
H    -4.428657     7.830294    -2.358808
H    -9.697636     5.790838    -4.740565
O    -10.043957     4.892539    -4.563023
H    -11.014860     4.961030    -4.567129
H     2.801139     6.513606     6.150634
O     1.841616     6.609117     6.254884
H     1.498171     5.695629     6.153695
H     4.795226     8.553202     0.083484
O     5.118507     8.553239     1.002376
H     5.527241     7.689252     1.129618
H     4.118220    -7.416339    -4.356087
O     3.356624    -7.701090    -4.893494
H     3.079837    -8.542848    -4.516571
H     0.395521     8.658015     4.262349
O     1.072068     8.013966     4.029163
H     1.304438     7.520727     4.841905
H     5.209314     4.200851    -3.165650
O     6.171109     4.171373    -3.119325
H     6.385391     3.589504    -2.373355
H    -2.530120    -1.552407     7.609827
O    -2.018891    -0.758979     7.826897
H    -2.642316    -0.133590     8.206457
H    -9.076973     7.919679    -4.058627
O    -8.996885     7.364206    -4.835211
H    -8.039258     7.203938    -4.961428
H     3.542148    -8.976620     1.079443
O     2.866571    -8.345572     1.333074
H     3.342389    -7.540239     1.611025
H     3.587502     8.175125     1.836222
O     2.798339     7.610662     1.953266
H     2.357201     7.845411     2.782392
N    -12.693559     3.964542    -4.022184
H    -12.416496     3.142285    -4.451702
H    -12.391010     3.832951    -3.112799
