33
Coordinates from ORCA-job grain_mol_opt.QMRegion
  H   7.81496726338773      0.98595381895482     -6.34962746069116
  O   7.51911136217599      0.17880581279912     -6.78130579473630
  H   6.53761840210366      0.23762277827903     -6.81135279740298
  H   3.25183450587565      3.59165254581688     -3.56972853291517
  O   3.07289042490769      4.55995582953920     -3.54028905201693
  H   2.09481499546743      4.54976998708270     -3.55296732215708
  H   2.49168675957742      1.55989790775245     -4.10375755827181
  O   3.36541944494862      1.92829204653445     -3.84755045682908
  H   3.69890262281174      1.36934081652490     -3.11451517743257
  H   0.68399881963643      2.95296245522187     -7.11707647168959
  O   1.61449833817024      2.65038221842907     -7.22026111379210
  H   1.58610893413903      1.86613811790313     -7.81004791638709
  H   3.27166981198786      2.90648431134227     -6.64511056605140
  O   4.17481022681432      2.72534584213754     -6.32054744895028
  H   4.02153501751781      2.41431981730947     -5.40117694473558
  H   4.44103444349611      0.00990724971093     -7.98874688718625
  O   4.79058912383699      0.20590593051711     -7.11313003428589
  H   4.51286714073648      1.12714135711804     -6.92273586463128
  H   6.54388215053620      1.51686578251390     -4.14555957992827
  O   6.18329031486359      0.85894511209222     -3.51457721002748
  H   6.21500866434607      1.28882799376260     -2.63847360943240
  H   4.16066255164881      6.13498040858414     -3.78948876830021
  O   4.91751470946264      6.74694356652766     -3.77049171470831
  H   5.53717367913996      6.28889483168122     -3.18301774168362
  H   7.54377215122365      3.31576641891424     -4.13282357790381
  O   7.40077273167193      2.85371417813878     -4.96998740957579
  H   6.90177264161694      3.54352956797006     -5.47231230390205
  H   5.36101843505336      4.05618111848213     -2.96216988694887
  O   6.20565694648588      4.36484182306502     -2.61533403791310
  H   6.40277336509828      3.70996429580927     -1.92218490300664
  O   5.93223076945226      4.86425451030022     -6.14845560344569
  H   5.68502482592018      5.55215147076854     -5.51158005560796
  H   5.14096008367385      4.29981376289567     -6.24438308143983
