33

H     7.841077     0.951108    -6.352663
O     7.543539     0.143766    -6.782808
H     6.562206     0.205029    -6.813813
H     3.282002     3.573658    -3.581798
O     3.105463     4.542429    -3.554335
H     2.127381     4.534716    -3.567914
H     2.517361     1.542807    -4.112749
O     3.391781     1.909395    -3.856301
H     3.723051     1.350934    -3.121890
H     0.716088     2.934709    -7.130389
O     1.645926     2.629612    -7.232076
H     1.616172     1.844334    -7.820419
H     3.303172     2.882538    -6.655586
O     4.205580     2.699562    -6.330007
H     4.050740     2.390505    -5.410204
H     4.466626    -0.019687    -7.993179
O     4.815555     0.177196    -7.117503
H     4.539536     1.099391    -6.929229
H     6.569706     1.489153    -4.150478
O     6.206466     0.833409    -3.518751
H     6.238360     1.264792    -2.643392
H     4.197572     6.114114    -3.805619
O     4.956019     6.724089    -3.786843
H     5.573725     6.265430    -3.197798
H     7.574858     3.285557    -4.140085
O     7.431080     2.822302    -4.976512
H     6.934005     3.512403    -5.480402
H     5.392169     4.033360    -2.973668
O     6.236800     4.340919    -2.625853
H     6.431355     3.686832    -1.931374
N     5.968145     4.834377    -6.159644
H     5.721893     5.524003    -5.524329
H     5.175581     4.271776    -6.255614
