18

H     0.701525    -5.004775     1.935837
O     0.179092    -5.085638     2.756496
H     0.327319    -5.994944     3.045335
H     3.391980    -6.143343     3.143244
O     3.744737    -5.954219     2.234360
H     3.016226    -5.599930     1.689765
H     2.465773    -5.547675     4.950490
O     2.952887    -6.386813     4.719878
H     2.426177    -7.138302     5.053186
H    -0.384036    -7.965597     2.224601
O     0.450257    -7.928754     2.721423
H     1.166566    -8.196868     2.111714
H     3.496412    -9.021054     0.965893
O     2.839459    -8.394175     1.285852
H     3.352075    -7.619020     1.597179
N     1.269149    -8.546797     5.287725
H     1.675070    -9.417139     5.329998
H     0.866451    -8.496014     4.397971
