603

H     0.201472     3.048992    -0.665796
O     0.727151     2.383380    -1.159673
H     1.665016     2.514157    -0.884542
H    -0.069432    -1.300968     3.150898
O     0.322037    -0.598020     2.609640
H    -0.158675     0.213368     2.844079
H    -2.396279     2.421164    -0.528957
O    -2.185406     1.948637     0.293875
H    -2.199564     1.001384     0.065980
H    -4.659684     0.543970     2.180161
O    -4.974175    -0.390309     2.190347
H    -4.467621    -0.864618     1.522866
H     0.071337    -0.295884     0.954985
O    -0.124905    -0.057236     0.028386
H     0.211302     0.840967    -0.089008
H    -0.142854    -3.573277     3.771427
O    -0.424331    -2.745008     4.193806
H     0.220182    -2.574952     4.897180
H    -4.887270     2.529357     1.333748
O    -4.247493     2.119793     1.948221
H    -3.404129     2.105716     1.436356
H    -3.247727     3.911322    -2.201819
O    -2.508763     3.315831    -1.971356
H    -2.148542     3.031104    -2.831432
H    -0.108165    -3.791330     0.496142
O     0.229221    -2.974243     0.916949
H    -0.559937    -2.490652     1.228713
H    -2.369882    -1.536599     2.465262
O    -2.178024    -1.999704     1.623432
H    -2.437114    -1.411465     0.895029
H     2.085563    -1.420044    -1.118533
O     2.317084    -1.674770    -0.201443
H     1.528396    -2.105452     0.180142
H    -1.391330     1.830486     1.918555
O    -1.482495     1.430096     2.793423
H    -1.471263     2.140572     3.460432
H     0.225369    -2.683178    -1.573837
O    -0.531802    -2.073407    -1.627404
H    -0.355122    -1.348237    -0.991468
H    -3.421303    -2.918020    -0.401141
O    -2.701769    -3.407172    -0.821432
H    -1.993261    -2.773934    -1.037592
H     2.774841     0.142258     2.941981
O     2.873798    -0.042771     3.903165
H     2.961640     0.849175     4.310640
H    -3.537539     6.387954    -0.526523
O    -3.299577     7.053303    -1.224234
H    -3.160942     7.897346    -0.751152
H     3.905858     0.605207     1.196704
O     2.955770     0.420679     1.310845
H     2.720992    -0.330696     0.728985
H    -5.773741     0.847778    -1.607447
O    -4.864359     1.176981    -1.478506
H    -4.978356     2.003655    -0.964827
H    -1.221839     5.402806     2.227614
O    -1.844421     4.654230     2.107769
H    -1.922721     4.232944     2.968955
H     3.492755     2.785520     0.442092
O     3.247945     2.745263    -0.497995
H     3.581334     1.903543    -0.849713
H     1.514000    -4.671414    -2.258845
O     1.576257    -3.895879    -1.683047
H     2.369483    -3.431319    -2.032633
H    -0.910787    -0.065020    -2.546637
O    -0.277264     0.589736    -2.867357
H    -0.020139     1.170805    -2.128423
H     1.718997    -4.665825    -0.186987
O     1.826772    -5.304775     0.553944
H     1.365548    -6.116152     0.254958
H    -1.206716    -3.245284    -2.887869
O    -1.030166    -3.926413    -3.550081
H    -0.902496    -4.774305    -3.083311
H    -2.788866     3.303109     4.713421
O    -1.807527     3.303229     4.680959
H    -1.515015     2.899621     5.516427
H     0.950099     5.040265     4.095556
O     0.003397     5.269953     4.146951
H    -0.467025     4.464840     4.401671
H    -1.710276    -4.638896    -0.384042
O    -0.944187    -5.178454    -0.099244
H    -1.291086    -5.868064     0.476116
H    -3.921645     5.844980    -2.583927
O    -4.269924     5.010893    -2.916271
H    -4.113787     4.979049    -3.884426
H    -2.416665    -3.686043     1.925191
O    -2.433273    -4.591300     2.298579
H    -1.493117    -4.827423     2.439635
H    -4.676462    -2.968273    -2.910651
O    -3.822867    -3.197621    -3.316290
H    -3.490529    -3.991870    -2.853109
H     0.336166     1.379491     4.622729
O     0.841204     2.141679     4.292197
H     0.886594     2.798905     5.000905
H    -4.632349    -5.162283    -1.589342
O    -5.335891    -4.812371    -1.015501
H    -5.123034    -5.168796    -0.132123
H     2.356064    -6.447993    -4.052229
O     2.017252    -6.123264    -3.197781
H     2.452244    -6.698262    -2.536113
H     0.488988    -3.350282    -4.011747
O     1.291409    -2.979279    -4.431756
H     0.972537    -2.607614    -5.280627
H     1.971053    -1.741720     2.983062
O     2.129521    -2.671443     2.763101
H     1.444961    -2.885099     2.094663
H    -2.998742    -1.792207    -3.215682
O    -2.579215    -0.904766    -3.146719
H    -3.235566    -0.260009    -3.466395
H    -3.197868     4.979480     1.092987
O    -3.979792     5.352412     0.638513
H    -4.397485     5.907001     1.345715
H     0.873372     2.263332     2.602417
O     0.976011     2.262073     1.631361
H     1.704431     1.640866     1.466335
H     0.183708     5.674583    -0.738408
O     0.704935     6.339252    -1.244128
H     0.843332     7.137940    -0.685913
H     0.328293     7.044556     2.615176
O    -0.031607     6.665646     1.796101
H     0.634325     5.997373     1.533710
H    -2.478443     0.214365     3.341495
O    -2.698726    -0.601705     3.843790
H    -1.938920    -0.641028     4.466366
H    -0.896929     0.549153     6.029078
O    -0.620358     0.032840     5.253449
H     0.094092    -0.569831     5.539369
H     0.726873    -4.983245     1.969885
O     0.184188    -5.096444     2.773558
H     0.330594    -6.017575     3.042978
H    -2.091399    -8.079854     0.424915
O    -1.771346    -7.593483     1.212102
H    -2.559122    -7.285411     1.667756
H    -0.386898     6.884797    -2.302657
O    -1.133622     7.304754    -2.801257
H    -1.924140     7.174254    -2.239299
H    -1.118634     4.320343     0.587968
O    -0.744520     4.385194    -0.307348
H    -1.449529     4.142976    -0.941566
H    -4.414514     2.741035     3.512216
O    -4.414690     2.908592     4.477322
H    -4.496389     2.024116     4.883677
H     2.034242    -3.574657     4.239850
O     1.970959    -4.049745     5.091532
H     2.475144    -3.513302     5.724617
H     4.701475    -3.170433     0.839658
O     4.542910    -3.091497    -0.126954
H     3.682262    -2.617074    -0.210331
H    -2.712174    -0.736000    -1.354359
O    -3.041247    -0.469459    -0.479404
H    -3.842934     0.054716    -0.685878
H    -1.600965    -0.736035    -4.631944
O    -1.093818    -0.516525    -5.434587
H    -0.385694     0.081018    -5.147446
H     1.810866    -1.684979    -3.376395
O     1.900734    -0.940031    -2.750376
H     1.122070    -0.364451    -2.881029
H     3.674397    -3.105342     2.549715
O     4.634140    -3.331852     2.477065
H     4.690682    -4.292307     2.601065
H     3.444505    -6.107022     3.113152
O     3.801052    -5.902345     2.214131
H     3.063240    -5.557507     1.671031
H    -3.335049     1.630082    -4.174550
O    -4.179209     1.156900    -3.986326
H    -4.398281     1.299129    -3.029586
H    -5.086645     4.149730     0.074819
O    -5.522840     3.282814    -0.031048
H    -6.453106     3.400283    -0.314132
H     6.746277    -1.148440    -1.352229
O     5.972464    -1.001039    -0.802268
H     5.554327    -1.870077    -0.607222
H     4.611003    -3.135886    -2.470342
O     3.744327    -2.964124    -2.888058
H     3.750619    -3.580273    -3.646670
H     4.440165    -2.284165     5.624142
O     4.097793    -2.752756     6.415659
H     4.434661    -3.656856     6.331572
H    -0.770346     6.336325     5.095909
O    -1.369106     6.909107     5.634938
H    -1.384386     7.787362     5.195880
H     4.706723    -0.107367    -1.456447
O     3.939595     0.434953    -1.719822
H     3.248002    -0.165735    -2.052196
H    -0.741725     4.548383    -4.022088
O    -1.525648     5.090027    -4.228999
H    -1.376778     5.955960    -3.804302
H     0.661737     3.228065    -2.645021
O     0.670579     3.608084    -3.552034
H     0.719363     2.846746    -4.140298
H    -5.366177    -5.197119     1.775119
O    -4.667534    -5.789215     1.419312
H    -3.828424    -5.371865     1.692067
H     7.897274    -1.652180    -4.019808
O     7.638176    -1.334840    -3.123590
H     7.149744    -0.492307    -3.281841
H     3.729175    -5.027684    -5.300418
O     4.489757    -4.653917    -4.816452
H     4.873552    -5.367204    -4.273580
H    -3.784426     0.009571     4.932965
O    -4.386913     0.470299     5.566381
H    -5.045985    -0.190222     5.855295
H     3.486537    -5.917578    -0.529570
O     4.359531    -5.667262    -0.844247
H     4.432384    -4.705050    -0.698672
H     5.013275    -0.293930    -4.147600
O     4.482605    -1.005035    -4.542992
H     4.155208    -1.593494    -3.829722
H    -1.164681     1.595350    -3.931092
O    -1.816141     2.216069    -4.314652
H    -1.459177     2.550224    -5.160532
H     4.910208    -6.288347    -2.324516
O     5.245887    -6.608923    -3.190575
H     6.063499    -7.090277    -3.003697
H     8.763805    -5.049984    -2.918419
O     8.072696    -5.469158    -2.361848
H     8.107720    -6.426344    -2.466238
H     2.331916     4.738989     0.471195
O     1.752306     4.717475     1.241947
H     1.396689     3.796186     1.316599
H    -4.407998    -2.642521     4.221285
O    -5.302567    -2.304572     4.018894
H    -5.166943    -1.521578     3.445583
H    -5.833471    -3.198997     1.303816
O    -6.295636    -3.759094     1.970075
H    -6.109410    -3.325527     2.822057
H     1.675049     3.468229     6.877971
O     1.051577     3.983748     6.344722
H     0.267438     4.133293     6.915711
H     5.007856    -2.152415     3.619516
O     5.026164    -1.435687     4.285373
H     4.212825    -0.881202     4.129678
H     2.404743    -5.569896     4.828574
O     2.787432    -6.452001     4.566601
H     2.044080    -7.034863     4.389750
H     2.283283    -4.477673    -6.797097
O     2.114415    -4.967934    -5.982337
H     1.847389    -4.278463    -5.326457
H     6.456455    -4.071937    -0.502678
O     7.211264    -4.472891    -0.040132
H     7.719631    -4.893316    -0.761403
H    -1.740190     4.478701     7.714951
O    -0.842009     4.578163     8.101665
H    -0.663732     5.537736     8.129001
H    -5.119605     5.712006    -5.583752
O    -4.510065     4.950148    -5.604845
H    -3.752662     5.167728    -6.169491
H     3.278911    -2.503104    -8.442960
O     3.208438    -3.012265    -7.628420
H     4.092992    -2.988082    -7.220379
H    -0.673398     8.846869    -2.251028
O    -0.552900     9.674388    -1.729954
H     0.208964     9.500252    -1.152643
H     2.068100    -0.907182     5.215009
O     1.496211    -1.436460     5.800221
H     1.587647    -1.093206     6.698478
H     5.162594    -2.013501    -5.671085
O     5.524177    -2.778376    -6.186749
H     5.224511    -3.567405    -5.670788
H     5.708429    -5.199396     4.681352
O     5.185309    -5.118100     5.507808
H     4.465343    -5.751533     5.419737
H    -3.980015     1.131574     7.008473
O    -3.790137     1.605580     7.853845
H    -4.667568     1.988226     8.114621
H    -1.868528     9.627527    -0.717958
O    -2.729079     9.497734    -0.244643
H    -3.341606     10.125257    -0.631960
H    -5.950442     4.698251    -2.929830
O    -6.858411     4.577779    -3.275374
H    -6.765263     3.877457    -3.954285
H     0.120123    -7.046176    -1.160224
O     0.584482    -7.482687    -0.412829
H    -0.095248    -7.681329     0.234295
H    -7.638511     3.792931    -1.969520
O    -7.899252     3.203348    -1.231282
H    -7.753568     2.295917    -1.573150
H     3.972671    -0.887517     6.992298
O     3.979042     0.076686     6.985953
H     4.791132     0.369742     6.556133
H     2.251010     5.820267    -1.157070
O     3.187471     5.529779    -1.043453
H     3.365417     4.991869    -1.837815
H     6.570273    -5.900905     0.666957
O     6.203073    -6.639542     1.198183
H     5.297431    -6.365481     1.424537
H    -3.884429     4.713042     7.792402
O    -3.315652     4.253510     7.132963
H    -3.506985     3.309311     7.240424
H     5.787831    -7.917133     0.125696
O     5.503137    -8.602968    -0.514527
H     4.673056    -8.279085    -0.908405
H    -0.566628     2.034072     7.701704
O    -1.198752     1.969970     6.965653
H    -2.067389     1.825042     7.360701
H    -6.378218    -0.124947     1.057579
O    -6.696841    -0.206817     0.144009
H    -7.614915    -0.479997     0.159811
H    -5.357624    -3.060401    -0.600159
O    -5.108109    -2.359318     0.027984
H    -5.679776    -1.587357    -0.158392
H     4.308111     5.602987     0.344154
O     4.641557     5.701833     1.249749
H     3.945471     6.208921     1.703234
H    -9.031061    -1.745749    -2.265862
O    -8.484843    -1.544993    -1.478475
H    -8.610870    -2.283882    -0.843161
H    -5.520838     3.487814    -5.521585
O    -6.036840     2.774926    -5.108996
H    -5.369124     2.189902    -4.696426
H     3.201113    -0.850906    -5.645315
O     2.348212    -0.963607    -6.116957
H     2.431945    -1.810532    -6.594962
H     8.120913    -1.289303    -5.895553
O     8.192020    -2.206396    -5.571348
H     7.308672    -2.577199    -5.764298
H     7.581752     1.217999    -6.108731
O     7.494056     0.340273    -6.511376
H     6.519159     0.255907    -6.688929
H    -7.846748    -3.699468     0.913477
O    -8.524705    -3.592440     0.228680
H    -8.423725    -4.349861    -0.375100
H    -2.425484     8.742745     1.317375
O    -2.273833     8.152667     2.069054
H    -1.502151     7.602049     1.845432
H    -4.458738     6.430472     3.512525
O    -4.629075     6.858354     2.656995
H    -3.867035     7.446644     2.519811
H     3.402382     3.478183    -3.562479
O     3.248331     4.447191    -3.464959
H     2.283319     4.510635    -3.573345
H    -6.101874    -1.595956    -3.450535
O    -6.184329    -2.177428    -2.668102
H    -6.969714    -1.873494    -2.159735
H     6.465179     1.068048     4.753521
O     6.069196     1.603861     5.457562
H     6.254641     2.523898     5.169109
H     1.370010     1.757151    -5.813135
O     1.177394     1.159204    -5.059524
H     1.543042     0.297820    -5.332771
H    -2.504046     2.943943     10.492420
O    -2.289143     2.037639     10.216922
H    -2.885444     1.838435     9.483269
H     7.630288    -0.473375     3.095193
O     6.878850     0.100617     3.263457
H     6.187268    -0.501851     3.641090
H    -5.632601    -8.050973    -0.726306
O    -4.898369    -8.119612    -0.079171
H    -4.904783    -7.303674     0.444876
H    -5.165994    -0.103166    -4.718460
O    -5.781164    -0.815886    -4.960315
H    -6.620087    -0.375820    -5.158635
H     1.898367    -0.151580    -7.512106
O     1.692865     0.319105    -8.353784
H     2.297655    -0.065893    -8.995714
H     4.834037    -1.526662    -9.385095
O     3.974660    -1.024000    -9.521506
H     3.923213    -0.840544    -10.461449
H     7.571086    -2.548283     4.204711
O     7.719320    -2.581529     3.245307
H     7.228080    -3.372930     2.971065
H     6.737655    -5.870595     2.680131
O     6.797300    -5.196723     3.382749
H     7.672688    -5.281243     3.801655
H    -1.842122     8.949218     3.522553
O    -1.596225     9.252062     4.422038
H    -2.445895     9.381202     4.876848
H    -7.382429     1.579291    -5.251702
O    -7.955625     0.833077    -5.009130
H    -8.858481     1.230093    -4.933353
H     6.917662    -1.703203    -9.032972
O     6.172502    -2.339766    -8.972968
H     6.087540    -2.531974    -8.023051
H    -1.678106     6.271734    -7.004271
O    -2.075583     5.445526    -6.733004
H    -1.827093     5.311841    -5.769954
H    -0.013121     3.302121     9.035784
O     0.186067     2.382235     9.288809
H    -0.612292     2.114663     9.793449
H     6.770932    -2.742925    -2.699774
O     6.242694    -3.488979    -2.360934
H     6.711601    -4.298401    -2.611161
H    -4.058727    -3.053926    -4.953122
O    -4.212276    -2.939353    -5.917748
H    -4.761191    -2.147396    -5.972760
H     1.969639     2.181438     8.477178
O     2.634119     2.297265     7.788261
H     3.058493     1.428321     7.671111
H    -6.887773    -5.199192    -1.414151
O    -7.802386    -5.470374    -1.661457
H    -7.935915    -5.065822    -2.543548
H    -3.841990     5.247189     5.710391
O    -3.810445     6.017295     5.121711
H    -2.877364     6.313791     5.217718
H    -7.877553     0.089539    -1.971815
O    -7.389174     0.815574    -2.382713
H    -7.616133     0.806483    -3.336323
H     5.841861     0.158303     0.423158
O     5.618674     0.878872     1.044631
H     6.127358     0.682469     1.858305
H    -6.226990     3.291982     7.401465
O    -6.098823     2.771863     8.228894
H    -6.697068     2.009266     8.137817
H     2.304017    -8.050229    -0.858575
O     2.982675    -8.034560    -1.553146
H     2.759934    -8.746982    -2.169021
H    -2.722228    -3.936133    -6.207469
O    -1.968191    -4.501807    -5.975715
H    -1.692914    -4.211186    -5.078000
H    -5.654213     3.749322     5.316345
O    -6.304854     4.142610     5.934012
H    -6.143882     5.087130     5.922991
H    -0.991675    -7.092680    -3.179535
O    -0.521291    -6.423525    -2.648676
H     0.386079    -6.350362    -3.029170
H     4.438580     2.029386     5.144012
O     3.496639     2.266913     5.023176
H     3.110974     2.279764     5.904534
H     4.095295     4.666260     6.322659
O     4.175937     5.397884     5.706295
H     3.609342     5.158351     4.934315
H     2.756062     3.629641     3.939918
O     2.576947     4.569819     3.776135
H     2.457850     4.670552     2.809881
H     9.401426     0.251525    -1.053501
O     8.592271     0.411204    -0.564227
H     8.417560    -0.408155    -0.071410
H    -2.121730     5.303605     10.666464
O    -2.842316     4.672549     10.895382
H    -3.062391     4.847083     11.810665
H     7.985436    -2.975001     0.332319
O     8.405033    -2.128064     0.589650
H     8.337527    -2.125547     1.551909
H     5.362463     3.684541     3.545595
O     6.017757     3.950000     4.212740
H     5.602450     4.665109     4.716590
H    -4.228098     5.002610     9.797302
O    -4.860711     5.153889     9.074942
H    -5.470672     4.403726     9.069755
H    -6.992903    -3.470107    -3.498896
O    -7.611400    -4.082394    -3.949463
H    -7.088401    -4.521309    -4.652259
H     0.004615     6.117002     10.791230
O    -0.860510     6.446964     10.543940
H    -0.744903     6.879932     9.678798
H     2.595298     1.529987    -4.096014
O     3.473486     1.882202    -3.854154
H     3.790885     1.366208    -3.083262
H    -6.975427    -0.238161     7.214856
O    -7.486267     0.538345     7.496657
H    -8.109057     0.722045     6.792283
H    -2.712231    -9.862100    -0.855069
O    -2.651026    -8.919856    -1.012082
H    -3.558156    -8.556196    -0.771793
H    -10.065353     3.080482    -4.897609
O    -10.180664     2.162033    -4.619402
H    -10.397515     2.243057    -3.669666
H    -2.060532    -3.025359     4.607657
O    -2.934358    -3.467885     4.675314
H    -2.925944    -4.083575     3.917287
H    -0.156151    -7.973536     2.468225
O     0.669249    -7.762386     2.917632
H     1.388823    -8.054957     2.330753
H     6.709924    -2.360298     6.397767
O     7.161513    -3.067704     5.932675
H     6.533337    -3.803972     5.891997
H    -5.270259    -2.017826     6.936372
O    -5.947282    -1.520164     6.453024
H    -5.929076    -1.894703     5.542834
H     0.843312     3.068178    -7.103394
O     1.761302     2.739024    -7.157174
H     1.750448     1.991397    -7.784672
H    -3.979258     8.746154     6.695086
O    -3.975900     8.746525     5.737721
H    -4.098714     7.819412     5.467388
H    -2.076519     10.332433    -2.708979
O    -2.978426     10.512781    -3.010762
H    -2.907803     11.148141    -3.722527
H     9.421100    -4.032795     4.048641
O     9.142870    -4.713461     4.669099
H     8.710836    -4.244422     5.393905
H    -0.707707    -5.968156    -5.853262
O    -0.003233    -6.533142    -5.519299
H     0.831390    -6.069303    -5.736066
H     1.809650     8.294185     0.692184
O     1.506610     8.617685    -0.184805
H     2.321643     8.659030    -0.714412
H     3.510773     2.955542    -6.655864
O     4.334588     2.652648    -6.248484
H     4.084289     2.381824    -5.340533
H     3.722162     7.153365    -1.203495
O     3.926453     8.090105    -1.414021
H     4.295732     8.037654    -2.307469
H     4.570836     0.070585    -7.952222
O     4.859572     0.195623    -7.032561
H     4.618305     1.120236    -6.805497
H     6.031173     1.965222    -0.459776
O     6.597915     2.161603    -1.219853
H     7.422981     1.683101    -1.025004
H     6.712117    -8.394863    -1.617268
O     7.349299    -8.180767    -2.351931
H     7.715997    -9.013799    -2.643345
H    -5.275932    -5.770805    -5.424471
O    -5.894604    -5.099478    -5.737749
H    -5.345087    -4.329412    -5.972359
H     0.661382     7.172086     7.624606
O    -0.240592     7.196508     7.983216
H    -0.795271     7.211881     7.165163
H    -8.880750    -2.828265    -4.115323
O    -9.403359    -2.021437    -3.946318
H    -9.118295    -1.354322    -4.574539
H    -2.387579    -5.972261    -2.158062
O    -3.266272    -5.687517    -2.426536
H    -3.451585    -6.060033    -3.313688
H    -2.961347    -5.876360    -5.423948
O    -3.559998    -6.489007    -4.953631
H    -3.076130    -7.308582    -4.789335
H    -1.387744     3.756505    -6.971648
O    -0.846017     3.002224    -6.700168
H    -1.077960     2.217280    -7.253167
H    -0.191190     0.456365    -8.212546
O    -1.088078     0.688441    -7.927930
H    -1.261752     0.160909    -7.132487
H    -10.424595     4.051586    -2.731283
O    -10.490838     3.271495    -2.164961
H    -9.661727     3.245630    -1.655631
H     4.573226     4.103574     1.740421
O     4.367246     3.181268     2.016309
H     5.084891     2.608016     1.734278
H     6.485775     1.453133    -4.198089
O     6.194471     0.819636    -3.510502
H     6.219758     1.307724    -2.661921
H     9.645938    -2.185142    -0.920653
O     9.922215    -1.966970    -1.819761
H     9.120771    -1.628244    -2.260970
H     9.985782    -3.272508    -3.090672
O     9.724821    -3.923401    -3.769195
H     9.325091    -3.417037    -4.486745
H    -7.670626    -8.572404    -1.692978
O    -6.934032    -7.975947    -1.818602
H    -7.313898    -7.063856    -1.807040
H     4.154424     6.117394    -3.797046
O     4.813708     6.820112    -3.710097
H     5.651080     6.368778    -3.571635
H     0.129062    -8.139923    -5.232999
O     0.155076    -9.123217    -5.103546
H     0.307327    -9.484255    -5.976950
H    -2.302897    -8.655925    -2.737105
O    -2.069014    -8.388988    -3.645665
H    -1.420407    -9.004637    -4.005736
H     2.218796    -10.785725    -3.518210
O     2.170182    -9.831418    -3.490364
H     1.385317    -9.560728    -4.017599
H     6.815971     3.402008    -4.540419
O     6.878100     2.737819    -5.255646
H     6.074890     2.863726    -5.786061
H    -3.558738    -3.734659     7.711283
O    -3.674177    -2.945669     7.183249
H    -3.421471    -3.181685     6.264528
H    -0.616448    -3.329736    -6.730649
O     0.012685    -2.597427    -6.732650
H    -0.471949    -1.823232    -6.392477
H     0.635879     0.456668     8.758494
O     0.645962    -0.256620     8.116274
H    -0.275495    -0.547480     8.026803
H    -5.842753     7.381848    -4.234622
O    -6.343678     6.763346    -4.797781
H    -6.629155     6.029942    -4.208928
H    -4.292503     9.118336    -3.240444
O    -4.826456     8.320721    -3.136557
H    -4.417403     7.840096    -2.398741
H    -9.715777     5.802456    -4.637363
O    -10.247352     4.996093    -4.476326
H    -11.127976     5.195415    -4.796048
H     2.750964     6.523344     6.164055
O     1.790562     6.617167     6.261212
H     1.449295     5.703247     6.156154
H     4.787388     8.575623     0.115409
O     5.104472     8.575050     1.036439
H     5.512611     7.711093     1.165764
H     4.171317    -7.387635    -4.354285
O     3.414019    -7.673387    -4.896997
H     3.136115    -8.516196    -4.523362
H     0.355960     8.666526     4.260885
O     1.035877     8.024474     4.032003
H     1.262441     7.529969     4.845629
H     5.232556     4.231412    -3.133412
O     6.194146     4.204551    -3.077449
H     6.403553     3.619164    -2.332637
H    -2.577152    -1.553792     7.570396
O    -2.069056    -0.759861     7.793119
H    -2.696897    -0.136139     8.168132
H    -9.037909     7.942818    -4.131594
O    -8.972549     7.360275    -4.889761
H    -8.014896     7.198906    -5.024343
H     3.556467    -8.957754     1.074400
O     2.878140    -8.328445     1.324920
H     3.350389    -7.522559     1.607076
H     3.567123     8.193130     1.858775
O     2.778348     7.626844     1.968647
H     2.330104     7.859437     2.794595
N     8.245667    -0.512854    -9.006894
H     9.091875    -0.955687    -8.892135
H     8.093581    -0.042117    -8.157486
