27
Coordinates from ORCA-job grain_mol_opt.QMRegion
  H   6.42241644022871     -4.10841060589546     -0.49554619890758
  O   7.20055581344420     -4.50369737875549     -0.06261825223967
  H   7.64746177527020     -4.94101674788914     -0.82014622279092
  H   7.64811719099274     -0.19016351329823      3.20981773102495
  O   6.79171488953804      0.22712356502385      3.31161784942022
  H   6.19292560939065     -0.49966420182040      3.63270666088682
  H   7.40707897366618     -2.56097355067054      4.19654056627160
  O   7.27785205006821     -2.55900536974987      3.23284291838580
  H   6.99275653439779     -3.48249328939761      3.06384658439115
  H   6.73020095927518     -5.93463114214288      2.71449021728436
  O   6.80375256328210     -5.23945459702310      3.39831690992853
  H   7.70062647221229     -5.28264614732071      3.79904316001478
  H   9.32516864452434      0.23799258602011     -1.05797066920529
  O   8.63634504130954      0.49188229056226     -0.43641465488838
  H   8.37733283312472     -0.34904892967137     -0.02750553507924
  H   8.03350490075124     -3.03123280354345      0.44906995737962
  O   8.45748266481764     -2.22502967766708      0.82081916674961
  H   8.03710940939572     -2.16618416109803      1.70830690512650
  H   9.66847590727544     -4.26383156466771      3.91434704751303
  O   9.19097875563351     -4.76919843184352      4.60397446823127
  H   8.87399170258053     -4.10647600721433      5.23103874597581
  H   9.67044542673509     -2.23020630775243     -1.08718869578771
  O   9.90878727608281     -1.87954964895483     -1.95323532019141
  H   9.04269554633897     -1.63790135394131     -2.35663901269725
  O   10.49824752827485     -3.49318812757733      2.39887837554068
  H   9.86728338648928     -3.03768834623981      1.80583185160255
  H   10.91507292319402     -4.16116344727829      1.84697021934910
