45

H     3.427626     2.541287     0.451020
O     3.275325     2.595939    -0.508838
H     3.531327     1.722205    -0.869383
H     2.249093     4.655544     0.455730
O     1.707894     4.644143     1.252930
H     1.333938     3.724553     1.328174
H     2.200405     5.814568    -1.256614
O     3.139493     5.519407    -1.137490
H     3.288366     4.940000    -1.918502
H     4.167643     5.542512     0.277571
O     4.635350     5.640657     1.130179
H     4.028432     6.240252     1.612333
H     3.396830     3.401918    -3.565733
O     3.192533     4.368484    -3.555358
H     2.218821     4.341657    -3.663703
H     5.820343    -0.070852     0.506002
O     5.598857     0.653097     1.127477
H     6.117811     0.470479     1.946039
H     3.744483     7.147992    -1.350352
O     3.922718     8.107937    -1.459725
H     4.140301     8.155686    -2.406834
H     6.155451     1.776963    -0.260608
O     6.686156     2.021455    -1.038957
H     7.499442     1.495205    -0.885671
H     4.551432     4.041066     1.754787
O     4.425288     3.128089     2.111485
H     5.159349     2.599422     1.787319
H     6.448937     1.440254    -4.142074
O     6.181713     0.786128    -3.459445
H     6.188599     1.235831    -2.596306
H     3.765636     6.741007    -4.315709
O     4.503129     7.339287    -4.149790
H     5.252782     6.719928    -4.081507
H     6.863991     3.438988    -4.847501
O     6.854908     2.610950    -5.361706
H     6.027564     2.689756    -5.870088
H     4.771144     8.643324     0.094681
O     5.037230     8.797501     1.025015
H     5.668464     8.090951     1.194967
H     5.178914     4.628693    -3.823960
O     6.101797     4.918235    -3.829699
H     6.355324     4.907182    -2.874603
N     6.864107     4.762826    -1.201044
H     6.375171     5.136389    -0.458883
H     6.865106     3.793628    -1.051605
