603

H     0.209689     3.030938    -0.709652
O     0.731321     2.359330    -1.200157
H     1.670861     2.489814    -0.930981
H    -0.055149    -1.293485     3.137246
O     0.335703    -0.594892     2.589951
H    -0.142293     0.219075     2.821110
H    -2.388683     2.411513    -0.555805
O    -2.175374     1.943513     0.269030
H    -2.193501     0.994910     0.047272
H    -4.644904     0.558528     2.175895
O    -4.961889    -0.374818     2.193901
H    -4.460045    -0.854959     1.527041
H     0.077698    -0.303259     0.934410
O    -0.122274    -0.070384     0.007155
H     0.215689     0.826120    -0.118123
H    -0.132515    -3.561249     3.773056
O    -0.409388    -2.729370     4.191397
H     0.238900    -2.556959     4.890678
H    -4.870823     2.539050     1.317593
O    -4.229336     2.131491     1.931667
H    -3.388499     2.111808     1.415844
H    -3.243713     3.893132    -2.234564
O    -2.505874     3.296384    -2.003674
H    -2.150060     3.005540    -2.863447
H    -0.113681    -3.801088     0.499409
O     0.227752    -2.982147     0.913274
H    -0.558689    -2.494396     1.225452
H    -2.359915    -1.526838     2.464122
O    -2.173247    -1.995966     1.624455
H    -2.434079    -1.411728     0.893448
H     2.079434    -1.446601    -1.141203
O     2.313612    -1.696215    -0.223394
H     1.525423    -2.122422     0.164199
H    -1.374948     1.833636     1.890646
O    -1.462227     1.439372     2.768731
H    -1.446271     2.154406     3.430755
H     0.213410    -2.707469    -1.579593
O    -0.542315    -2.095939    -1.633688
H    -0.360697    -1.367201    -1.003201
H    -3.428488    -2.923941    -0.388236
O    -2.712415    -3.417947    -0.808798
H    -2.002997    -2.788263    -1.032201
H     2.792261     0.140877     2.905477
O     2.895556    -0.037191     3.867494
H     2.987508     0.857829     4.266740
H    -3.518285     6.381588    -0.574542
O    -3.281774     7.041295    -1.277868
H    -3.138307     7.888251    -0.811244
H     3.916029     0.580246     1.154025
O     2.964728     0.404758     1.270850
H     2.723786    -0.349848     0.695640
H    -5.775838     0.840654    -1.608314
O    -4.864904     1.167999    -1.485784
H    -4.974140     1.998479    -0.977131
H    -1.193189     5.408105     2.175728
O    -1.817771     4.660064     2.063113
H    -1.894265     4.244895     2.927370
H     3.466045     2.715886     0.408864
O     3.255315     2.713815    -0.539025
H     3.584403     1.876232    -0.905812
H     1.492974    -4.703907    -2.256974
O     1.559912    -3.924687    -1.686781
H     2.353529    -3.465210    -2.042368
H    -0.920068    -0.092647    -2.564146
O    -0.286289     0.558175    -2.892280
H    -0.024023     1.143415    -2.158450
H     1.707779    -4.685156    -0.186425
O     1.816858    -5.319373     0.558370
H     1.352271    -6.131518     0.266841
H    -1.226552    -3.274172    -2.882896
O    -1.055301    -3.960101    -3.541587
H    -0.927681    -4.805307    -3.069871
H    -2.754406     3.328944     4.682158
O    -1.773192     3.325669     4.645371
H    -1.478226     2.926743     5.482163
H     0.985357     5.050238     4.036779
O     0.039738     5.283324     4.090184
H    -0.432551     4.481661     4.352004
H    -1.722524    -4.649733    -0.367662
O    -0.956584    -5.189596    -0.083047
H    -1.302584    -5.874393     0.498585
H    -3.913958     5.826020    -2.626205
O    -4.266149     4.990729    -2.951513
H    -4.114532     4.952224    -3.920089
H    -2.415168    -3.679697     1.938510
O    -2.432575    -4.582413     2.317940
H    -1.492446    -4.820345     2.456147
H    -4.695536    -2.987074    -2.891543
O    -3.844577    -3.221699    -3.299757
H    -3.512291    -4.013684    -2.832685
H     0.364665     1.395507     4.589565
O     0.870682     2.154126     4.252356
H     0.920415     2.816005     4.956268
H    -4.651492    -5.172474    -1.555857
O    -5.351317    -4.816733    -0.981098
H    -5.135407    -5.167967    -0.096369
H     2.321587    -6.495442    -4.042334
O     1.987554    -6.163588    -3.188827
H     2.424042    -6.735161    -2.525021
H     0.462885    -3.392076    -4.013846
O     1.264526    -3.026960    -4.440550
H     0.942717    -2.658253    -5.289431
H     1.982793    -1.740936     2.962768
O     2.137700    -2.672558     2.748477
H     1.449534    -2.888884     2.084625
H    -3.015933    -1.818004    -3.212174
O    -2.593370    -0.931415    -3.151533
H    -3.249611    -0.286768    -3.471760
H    -3.175457     4.982666     1.052541
O    -3.958756     5.354451     0.599570
H    -4.371159     5.915329     1.304942
H     0.894368     2.263852     2.562797
O     0.992208     2.253967     1.591305
H     1.716452     1.627508     1.428723
H     0.206620     5.654055    -0.803082
O     0.728390     6.314525    -1.312545
H     0.862841     7.117193    -0.757651
H     0.366500     7.049026     2.545409
O     0.000214     6.665044     1.731235
H     0.660350     5.990696     1.469786
H    -2.459130     0.230247     3.329390
O    -2.679310    -0.581941     3.838032
H    -1.916757    -0.619419     4.457266
H    -0.864117     0.578002     6.007287
O    -0.592306     0.056251     5.233623
H     0.121526    -0.546846     5.520033
H     0.724860    -4.985581     1.977119
O     0.185560    -5.091801     2.784036
H     0.330631    -6.011536     3.058920
H    -2.109554    -8.084069     0.465712
O    -1.784418    -7.593345     1.248079
H    -2.569156    -7.280233     1.705538
H    -0.371542     6.856798    -2.367240
O    -1.120038     7.275185    -2.864920
H    -1.908365     7.151676    -2.298456
H    -1.100240     4.314797     0.541660
O    -0.729804     4.371366    -0.355694
H    -1.438772     4.128014    -0.984833
H    -4.387177     2.763605     3.492384
O    -4.382056     2.937444     4.456367
H    -4.464646     2.055965     4.868967
H     2.046965    -3.565837     4.231563
O     1.986090    -4.034821     5.086798
H     2.495105    -3.495928     5.713817
H     4.699871    -3.191519     0.816119
O     4.536298    -3.119015    -0.150001
H     3.677006    -2.642322    -0.232438
H    -2.717564    -0.750342    -1.359065
O    -3.041886    -0.477094    -0.484460
H    -3.842989     0.048130    -0.690705
H    -1.622154    -0.775101    -4.642232
O    -1.117928    -0.562574    -5.448707
H    -0.406992     0.035009    -5.168438
H     1.793759    -1.725909    -3.395641
O     1.888011    -0.976966    -2.775323
H     1.110243    -0.400264    -2.906435
H     3.680521    -3.112601     2.530870
O     4.639403    -3.341677     2.455938
H     4.694353    -4.301501     2.585356
H     3.444720    -6.109418     3.115100
O     3.797515    -5.911553     2.213133
H     3.058123    -5.568245     1.671279
H    -3.347225     1.598870    -4.191705
O    -4.191679     1.129133    -3.996492
H    -4.405977     1.278525    -3.039720
H    -5.071406     4.151589     0.048942
O    -5.510515     3.285160    -0.049213
H    -6.441747     3.403501    -0.328693
H     6.738738    -1.185071    -1.399815
O     5.968091    -1.034679    -0.845875
H     5.550528    -1.902257    -0.644652
H     4.594679    -3.178185    -2.493393
O     3.725252    -3.008188    -2.906646
H     3.725758    -3.629463    -3.660777
H     4.463144    -2.273098     5.595669
O     4.123440    -2.734754     6.392375
H     4.456767    -3.640618     6.312810
H    -0.725468     6.359216     5.034900
O    -1.319483     6.937223     5.573430
H    -1.334157     7.812768     5.128303
H     4.703054    -0.139637    -1.500893
O     3.933924     0.401473    -1.761367
H     3.241324    -0.200640    -2.088666
H    -0.744524     4.511047    -4.070691
O    -1.527927     5.053572    -4.277615
H    -1.373947     5.921790    -3.859111
H     0.660458     3.195316    -2.691669
O     0.666529     3.569515    -3.600791
H     0.712680     2.804782    -4.184595
H    -5.369653    -5.183098     1.812120
O    -4.674368    -5.779469     1.456852
H    -3.832807    -5.362848     1.723076
H     7.876801    -1.705898    -4.072870
O     7.621769    -1.389358    -3.173551
H     7.135174    -0.545507    -3.331702
H     3.691156    -5.091684    -5.303108
O     4.455274    -4.716806    -4.825815
H     4.841385    -5.426087    -4.278952
H    -3.758322     0.039661     4.928211
O    -4.356363     0.506326     5.561439
H    -5.016069    -0.150275     5.857766
H     3.470082    -5.944059    -0.528668
O     4.342051    -5.698593    -0.849874
H     4.419174    -4.735731    -0.710575
H     4.997017    -0.351314    -4.195391
O     4.459250    -1.063569    -4.580344
H     4.135801    -1.644254    -3.859271
H    -1.175536     1.559754    -3.957925
O    -1.827356     2.179080    -4.343146
H    -1.472841     2.507677    -5.191986
H     4.884448    -6.331235    -2.327399
O     5.214097    -6.659576    -3.192957
H     6.032672    -7.139962    -3.007386
H     8.737948    -5.104386    -2.948537
O     8.048554    -5.520065    -2.386200
H     8.082763    -6.477718    -2.485131
H     2.338762     4.719650     0.404171
O     1.767175     4.703755     1.181051
H     1.410457     3.784144     1.265560
H    -4.392732    -2.615258     4.236924
O    -5.287252    -2.276072     4.036483
H    -5.152103    -1.497237     3.457414
H    -5.833462    -3.186681     1.329889
O    -6.294039    -3.741124     2.001934
H    -6.102685    -3.302498     2.850184
H     1.719267     3.493885     6.825630
O     1.096838     4.009810     6.291667
H     0.314755     4.165420     6.864174
H     5.021804    -2.156196     3.588209
O     5.045054    -1.434659     4.248888
H     4.232495    -0.879025     4.092802
H     2.414200    -5.558276     4.831896
O     2.793272    -6.443050     4.574015
H     2.047569    -7.025026     4.404300
H     2.241786    -4.540710    -6.800403
O     2.075152    -5.025949    -5.982369
H     1.812921    -4.332171    -5.328706
H     6.446131    -4.106150    -0.530025
O     7.200454    -4.507833    -0.067319
H     7.705323    -4.933572    -0.788102
H    -1.687870     4.520991     7.671079
O    -0.787183     4.620582     8.052107
H    -0.606819     5.580001     8.072906
H    -5.126314     5.676690    -5.619344
O    -4.519133     4.912831    -5.638823
H    -3.763647     5.124963    -6.208061
H     3.260850    -2.558857    -8.457827
O     3.175831    -3.088339    -7.654100
H     4.053950    -3.062531    -7.228406
H    -0.653184     8.820650    -2.327525
O    -0.530284     9.651591    -1.812707
H     0.229397     9.479432    -1.232174
H     2.093237    -0.891509     5.188671
O     1.522813    -1.415503     5.780041
H     1.619038    -1.066805     6.675668
H     5.194613    -2.045690    -5.722732
O     5.538664    -2.814237    -6.242743
H     5.266445    -3.602031    -5.721162
H     5.718685    -5.197952     4.666723
O     5.199340    -5.109202     5.494871
H     4.477598    -5.741642     5.414581
H    -3.940854     1.175928     6.997188
O    -3.745497     1.654922     7.838487
H    -4.620600     2.041942     8.100821
H    -1.841619     9.615021    -0.794862
O    -2.700563     9.490047    -0.317162
H    -3.312828     10.117520    -0.704889
H    -5.947574     4.682923    -2.955233
O    -6.857541     4.562644    -3.295628
H    -6.769644     3.857753    -3.970423
H     0.097316    -7.067238    -1.136195
O     0.563996    -7.500271    -0.388315
H    -0.113121    -7.692631     0.263436
H    -7.633752     3.788812    -1.981017
O    -7.892705     3.204739    -1.237766
H    -7.751238     2.294727    -1.574402
H     4.004656    -0.866690     6.957416
O     4.015222     0.097509     6.944296
H     4.826498     0.383555     6.508921
H     2.293574     5.822897    -1.213591
O     3.225355     5.523194    -1.092302
H     3.400547     4.978894    -1.882232
H     6.559928    -5.928279     0.652482
O     6.193059    -6.662184     1.190733
H     5.289240    -6.384060     1.419139
H    -3.831002     4.762291     7.757044
O    -3.266318     4.296587     7.098377
H    -3.460482     3.353777     7.212597
H     5.769096    -7.945973     0.129173
O     5.478671    -8.635582    -0.504417
H     4.648369    -8.311221    -0.897251
H    -0.521864     2.072936     7.668724
O    -1.157337     2.005984     6.935883
H    -2.024709     1.866289     7.335643
H    -6.370659    -0.112770     1.065891
O    -6.693649    -0.199893     0.154354
H    -7.612475    -0.470102     0.176155
H    -5.366129    -3.062075    -0.577140
O    -5.111613    -2.357511     0.045056
H    -5.682072    -1.585211    -0.143711
H     4.197505     5.539743     0.300443
O     4.530502     5.602867     1.215166
H     3.879801     6.209148     1.641288
H    -9.043537    -1.747688    -2.234466
O    -8.492884    -1.543477    -1.451077
H    -8.618200    -2.277691    -0.810232
H    -5.533579     3.454341    -5.540806
O    -6.049644     2.745356    -5.121581
H    -5.381773     2.161326    -4.707947
H     3.169571    -0.909020    -5.682369
O     2.311753    -1.031356    -6.143947
H     2.395854    -1.881932    -6.614824
H     8.101990    -1.373736    -6.070793
O     8.111601    -2.236001    -5.610918
H     7.254630    -2.636776    -5.857331
H     7.607909     0.964710    -6.358854
O     7.417370     0.114921    -6.768521
H     6.435910     0.065315    -6.801011
H    -7.849992    -3.683922     0.952216
O    -8.530708    -3.579362     0.269788
H    -8.434860    -4.341104    -0.329351
H    -2.390842     8.745203     1.248957
O    -2.237869     8.158929     2.003354
H    -1.467957     7.605747     1.779844
H    -4.420660     6.453261     3.468550
O    -4.593826     6.875752     2.610963
H    -3.830834     7.461101     2.466255
H     3.400494     3.436958    -3.601860
O     3.251116     4.405996    -3.502943
H     2.286865     4.475931    -3.609897
H    -6.119562    -1.614147    -3.433775
O    -6.199910    -2.190310    -2.647229
H    -6.982079    -1.880848    -2.137161
H     6.494390     1.071207     4.689982
O     6.105408     1.619354     5.388801
H     6.297282     2.534202     5.090846
H     1.350310     1.701211    -5.852910
O     1.158216     1.108083    -5.095808
H     1.520924     0.244107    -5.363605
H    -2.443095     3.006846     10.462284
O    -2.231628     2.098347     10.191340
H    -2.832380     1.895902     9.462205
H     7.646374    -0.486712     3.040186
O     6.897490     0.089871     3.211219
H     6.206085    -0.509919     3.593832
H    -5.655937    -8.052556    -0.669220
O    -4.918785    -8.119011    -0.025174
H    -4.920509    -7.299711     0.493641
H    -5.185399    -0.132519    -4.715767
O    -5.803542    -0.845076    -4.950485
H    -6.642220    -0.403880    -5.147430
H     1.872098    -0.226366    -7.539757
O     1.667462     0.241920    -8.384870
H     2.242074    -0.165749    -9.038275
H     4.847592    -1.429193    -9.334505
O     3.921442    -1.201673    -9.614568
H     3.898274    -1.322966    -10.563107
H     7.585792    -2.556438     4.165169
O     7.728687    -2.594864     3.205188
H     7.235278    -3.387178     2.937598
H     6.736397    -5.885106     2.664875
O     6.801059    -5.207211     3.363246
H     7.678345    -5.291442     3.778237
H    -1.796104     8.964449     3.449785
O    -1.545673     9.271311     4.346612
H    -2.392933     9.407424     4.803647
H    -7.399361     1.552841    -5.249832
O    -7.973497     0.809821    -4.999773
H    -8.874853     1.210004    -4.922312
H     6.904638    -1.115737    -8.443328
O     6.321819    -1.837868    -8.702148
H     6.096772    -2.284349    -7.867636
H    -1.690148     6.216899    -7.059900
O    -2.087832     5.393179    -6.781390
H    -1.835716     5.266123    -5.818180
H     0.041467     3.348750     8.991319
O     0.240000     2.430112     9.249539
H    -0.556671     2.167844     9.759701
H     6.754341    -2.789937    -2.736367
O     6.225109    -3.532927    -2.390506
H     6.692364    -4.344690    -2.636274
H    -4.087546    -3.088032    -4.936228
O    -4.245020    -2.979180    -5.900920
H    -4.792319    -2.186235    -5.958333
H     2.018230     2.218511     8.430978
O     2.680546     2.327374     7.738744
H     3.100855     1.455938     7.625611
H    -6.906181    -5.201657    -1.369984
O    -7.822669    -5.471893    -1.611262
H    -7.959257    -5.072736    -2.495320
H    -3.796769     5.282531     5.671557
O    -3.765775     6.048393     5.077439
H    -2.831557     6.343353     5.167140
H    -7.883448     0.086126    -1.957922
O    -7.394792     0.807889    -2.375936
H    -7.626379     0.793319    -3.328353
H     5.847880     0.132095     0.370541
O     5.628516     0.853322     0.992981
H     6.143417     0.658832     1.803233
H    -6.179646     3.345433     7.386452
O    -6.048950     2.830304     8.216620
H    -6.649945     2.068975     8.133435
H     2.280226    -8.075763    -0.838012
O     2.955059    -8.066130    -1.536395
H     2.727865    -8.782439    -2.146061
H    -2.759524    -3.982213    -6.190749
O    -2.005397    -4.547971    -5.959343
H    -1.725745    -4.252888    -5.064389
H    -5.615347     3.787535     5.295553
O    -6.261840     4.186550     5.913858
H    -6.098712     5.130591     5.895532
H    -1.023844    -7.123905    -3.150327
O    -0.549259    -6.452354    -2.626292
H     0.356835    -6.384687    -3.010800
H     4.470918     2.035636     5.089062
O     3.530076     2.278690     4.972462
H     3.147136     2.293501     5.854851
H     4.034121     4.735639     6.252491
O     4.178843     5.426941     5.594228
H     3.580622     5.158480     4.849452
H     2.785293     3.633515     3.878982
O     2.607000     4.573877     3.714322
H     2.481553     4.672366     2.748511
H     9.397742     0.208887    -1.122439
O     8.592863     0.370497    -0.626641
H     8.420839    -0.447776    -0.131332
H    -2.053641     5.366466     10.618974
O    -2.774718     4.738774     10.855363
H    -2.990436     4.920185     11.770343
H     7.981436    -3.009822     0.292720
O     8.403667    -2.162360     0.543525
H     8.341282    -2.154036     1.505996
H     5.514493     3.621107     3.516835
O     6.167859     3.977392     4.145282
H     5.637920     4.572776     4.703581
H    -4.164827     5.065959     9.761543
O    -4.800109     5.214272     9.040943
H    -5.412533     4.466113     9.043620
H    -7.016043    -3.486069    -3.465657
O    -7.638344    -4.099539    -3.909337
H    -7.119971    -4.544557    -4.611658
H     0.075931     6.174938     10.728299
O    -0.789582     6.505137     10.482757
H    -0.677089     6.932553     9.614461
H     2.583346     1.482873    -4.138657
O     3.461658     1.837947    -3.903304
H     3.786933     1.323362    -3.135021
H    -6.939195    -0.183736     7.226537
O    -7.446310     0.596205     7.505512
H    -8.072094     0.776930     6.803025
H    -2.741219    -9.872883    -0.799650
O    -2.678217    -8.931894    -0.963369
H    -3.583171    -8.564106    -0.721071
H    -10.076231     3.064097    -4.893256
O    -10.192734     2.147804    -4.608470
H    -10.405023     2.235760    -3.658306
H    -2.044477    -3.002327     4.614809
O    -2.919225    -3.441834     4.689510
H    -2.916207    -4.062577     3.935584
H    -0.164072    -7.970020     2.499314
O     0.663952    -7.757966     2.943415
H     1.380052    -8.056571     2.355307
H     6.734697    -2.351528     6.360908
O     7.182982    -3.062346     5.897898
H     6.553223    -3.797634     5.864044
H    -5.240333    -1.970134     6.951896
O    -5.918125    -1.473676     6.468404
H    -5.905401    -1.854314     5.560666
H     0.819843     3.006734    -7.148193
O     1.737020     2.675084    -7.206178
H     1.720806     1.925181    -7.829042
H    -3.920073     8.788371     6.633526
O    -3.921393     8.782214     5.676188
H    -4.047759     7.853715     5.412565
H    -2.056573     10.307389    -2.789358
O    -2.959363     10.487515    -3.088749
H    -2.890252     11.118981    -3.804103
H     9.431925    -4.046937     4.008370
O     9.153945    -4.722077     4.634946
H     8.727470    -4.246433     5.358688
H    -0.749514    -6.017344    -5.832604
O    -0.045102    -6.582727    -5.499151
H     0.789807    -6.122529    -5.721881
H     1.811123     8.267588     0.638206
O     1.508080     8.586734    -0.238184
H     2.328251     8.644466    -0.760223
H     3.483544     2.903912    -6.704844
O     4.312605     2.614770    -6.297797
H     4.071478     2.348567    -5.385609
H     3.765441     7.142600    -1.215240
O     3.925261     8.076005    -1.462987
H     4.215049     7.986493    -2.385688
H     4.375626    -0.037240    -7.946016
O     4.755195     0.111170    -7.078049
H     4.575427     1.044320    -6.837185
H     6.037190     1.934833    -0.522487
O     6.598334     2.124914    -1.287730
H     7.424764     1.648099    -1.095647
H     6.683198    -8.438494    -1.615365
O     7.316504    -8.231022    -2.355050
H     7.681522    -9.066585    -2.641263
H    -5.314681    -5.804385    -5.383975
O    -5.932731    -5.133368    -5.699107
H    -5.382123    -4.366385    -5.941066
H     0.720251     7.207819     7.551793
O    -0.179871     7.235976     7.914233
H    -0.738245     7.248261     7.098416
H    -8.904965    -2.842775    -4.077552
O    -9.424376    -2.033324    -3.911385
H    -9.140447    -1.371183    -4.545355
H    -2.411759    -5.992721    -2.129589
O    -3.290787    -5.707108    -2.396027
H    -3.481417    -6.085128    -3.279647
H    -3.000137    -5.916889    -5.393629
O    -3.598487    -6.524527    -4.916666
H    -3.116342    -7.344384    -4.748659
H    -1.406333     3.702526    -7.011249
O    -0.865704     2.947513    -6.738979
H    -1.104588     2.160287    -7.284980
H    -0.224860     0.388009    -8.235333
O    -1.119889     0.624500    -7.949754
H    -1.292282     0.104312    -7.149015
H    -10.422600     4.050472    -2.731627
O    -10.488334     3.274174    -2.160055
H    -9.657067     3.249462    -1.654198
H     4.525747     3.924632     1.674455
O     4.353077     3.013272     1.993397
H     5.031162     2.429272     1.627354
H     6.479135     1.380526    -4.267465
O     6.178342     0.760517    -3.568323
H     6.213190     1.261691    -2.728143
H     9.636840    -2.231794    -0.973746
O     9.910231    -2.021585    -1.875450
H     9.108844    -1.682960    -2.317111
H     9.964910    -3.335343    -3.139602
O     9.695154    -3.989926    -3.811017
H     9.299226    -3.484875    -4.531877
H    -7.699780    -8.574499    -1.622934
O    -6.962165    -7.980924    -1.756028
H    -7.339481    -7.067729    -1.748582
H     4.136021     6.092757    -3.829073
O     4.778856     6.811005    -3.750323
H     5.628756     6.381739    -3.619798
H     0.083993    -8.188113    -5.201796
O     0.107904    -9.170505    -5.066061
H     0.255082    -9.537836    -5.937695
H    -2.337667    -8.680236    -2.691410
O    -2.107125    -8.420042    -3.602823
H    -1.462089    -9.040135    -3.961628
H     2.174867    -10.828318    -3.479078
O     2.129061    -9.873685    -3.458023
H     1.342004    -9.604609    -3.982673
H     6.830212     3.308024    -4.632361
O     6.885029     2.626058    -5.330425
H     6.090629     2.759741    -5.869459
H    -3.530313    -3.686753     7.730087
O    -3.645497    -2.900826     7.197452
H    -3.398045    -3.143735     6.279106
H    -0.655138    -3.385560    -6.727224
O    -0.024447    -2.654605    -6.739643
H    -0.504583    -1.877393    -6.399692
H     0.681033     0.499110     8.730484
O     0.686457    -0.217670     8.092125
H    -0.236085    -0.507106     8.009092
H    -5.838037     7.357593    -4.278336
O    -6.343338     6.736693    -4.835012
H    -6.628389     6.008307    -4.239824
H    -4.278500     9.095960    -3.302849
O    -4.814087     8.300436    -3.191255
H    -4.402742     7.823810    -2.452099
H    -9.717671     5.786696    -4.652487
O    -10.250718     4.982842    -4.483848
H    -11.132346     5.182754    -4.800421
H     2.802771     6.543859     6.085321
O     1.843955     6.638141     6.187842
H     1.499208     5.724600     6.090290
H     4.734130     8.921067     0.111417
O     4.881614     9.146797     1.047567
H     5.657052     8.608207     1.296458
H     4.132540    -7.441913    -4.346445
O     3.372328    -7.728577    -4.884743
H     3.093232    -8.567971    -4.504264
H     0.411213     8.682247     4.172179
O     1.083988     8.031579     3.946800
H     1.309894     7.545842     4.765040
H     5.236745     4.200347    -3.224511
O     6.197676     4.153951    -3.175230
H     6.401909     3.580243    -2.420693
H    -2.542720    -1.509709     7.570245
O    -2.031368    -0.715711     7.785210
H    -2.655755    -0.087907     8.159219
H    -9.031255     7.928490    -4.164156
O    -8.971122     7.340518    -4.918560
H    -8.014562     7.175743    -5.056661
H     3.539059    -8.973793     1.094627
O     2.863662    -8.340904     1.344113
H     3.339629    -7.534629     1.618822
H     3.542481     8.339706     1.782278
O     2.826177     7.669548     1.924992
H     2.321722     7.905111     2.724218
N     6.811735     7.141872     1.594408
H     7.137551     6.906975     2.468723
H     6.102065     6.490073     1.421443
