36
Coordinates from ORCA-job grain_mol_opt.QMRegion
  H   -4.60580502506459      0.47137407014105      2.07018766678827
  O   -4.96133439309397     -0.44064775152366      2.15001874592345
  H   -4.56280455471730     -0.96158056320749      1.43985505730361
  H   -5.01033449281637      2.52685117897884      1.33915450716239
  O   -4.27655426504474      2.14797193171763      1.85031901532292
  H   -3.47572540473685      2.19463462980714      1.26896043957918
  H   -5.73644319425414      0.83380200599345     -1.58925314272272
  O   -4.81869769683468      1.14057784155659     -1.51224989722497
  H   -4.85297760487055      2.07052438670598     -1.20158272824449
  H   -3.09233362829466      5.10015547948430      1.18941345333590
  O   -3.89088235215444      5.43085371297838      0.71950187733983
  H   -4.33334284657579      5.99900728446920      1.40229564347929
  H   -4.36053819571622      2.71522310865451      3.50368856593131
  O   -4.39968724513936      2.87067502290311      4.47254537625894
  H   -4.43084514596738      1.97156446536993      4.86866031123418
  H   -4.79319923083341      4.33272727888064     -0.16430006165542
  O   -5.19665580564701      3.59162996364645     -0.66735357049659
  H   -6.15496822534643      3.70174710489949     -0.66933439240243
  H   -7.71684495580362      3.81199849573095     -2.01068950730782
  O   -7.99201719095250      3.19493250475600     -1.29331889179645
  H   -7.86085170527548      2.30685539908792     -1.70950655091239
  H   -6.53786656960548     -0.15584205708348      1.06107341895559
  O   -6.75502355457339     -0.28538105443745      0.12063748647783
  H   -7.62400983080146     -0.69154125440107      0.06889416166075
  H   -7.99828637524831      0.06302983109134     -2.05506370605347
  O   -7.45887020561174      0.76897533682508     -2.43966066786908
  H   -7.67241850325371      0.76452513649967     -3.40235817958183
  H   -5.68476871528894      3.74172056357538      5.29989475769639
  O   -6.39687438223176      4.08470906110474      5.88392460490616
  H   -6.18237500526237      5.01226059954112      6.01671813536249
  H   -10.56724996282142      4.08499240779883     -2.88681531540487
  O   -10.70065987295793      3.35893096512378     -2.25301483619390
  H   -9.84802853903565      3.31326674583505     -1.78660208636029
  O   -7.20198005401918      2.60196757584858      1.54944268139682
  H   -7.60497080712144      2.81342565081219      0.69320042667145
  H   -7.56282192283678      3.25615384735341      2.15423901119779
