18
Coordinates from ORCA-job grain_mol_opt.QMRegion
  H   -4.14251031766725     -3.01223690729595     -4.86230989066812
  O   -4.32516246313685     -2.89188543695595     -5.82294445513089
  H   -4.85106202995102     -2.07523755138374     -5.83391084791489
  H   -2.70949014235636     -3.86930030521930     -6.19867503386569
  O   -1.98112976646847     -4.45667627685006     -5.93962491331728
  H   -1.71733784740033     -4.15288812403006     -5.04017342536519
  H   -7.04206795824342     -3.38323741051348     -3.40190445695054
  O   -7.66439679679624     -3.99303537061929     -3.86301018407334
  H   -7.13438707451988     -4.41953711468274     -4.56272956619495
  H   -5.34745946579996     -5.74312081242048     -5.38186163874748
  O   -5.96869284352921     -5.11855447071677     -5.79500865470661
  H   -5.42582806493778     -4.31312384175460     -5.93622857949240
  H   -2.98134422513886     -5.93263852201082     -5.31047730675464
  O   -3.62218320887076     -6.52344364073466     -4.86823809839992
  H   -3.13990791572889     -7.33446086130491     -4.62690419480370
  O   -5.79742660731685     -6.38627971136384     -8.38558939217922
  H   -6.58092547120892     -6.18061698386913     -8.90262482537316
  H   -5.95527981401810     -5.94377769558349     -7.53259253954542
