24
Coordinates from ORCA-job grain_mol_opt.QMRegion
  H   -3.86405218696400      4.60562703303109      7.90260419355180
  O   -3.31834198496233      4.18645054941763      7.21225334614988
  H   -3.47498988780380      3.23323824638949      7.36243651509981
  H   -4.31724583150299      6.36961465390836      3.39775222458758
  O   -4.59027490824173      6.95385375561889      2.65721398230980
  H   -3.75717582976765      7.42967870697107      2.45360409247543
  H   -3.68415967313253      5.02876994430514      5.50172476776608
  O   -3.55416169177652      5.71689676929219      4.83423335820498
  H   -2.75625261767460      6.18561124088346      5.16286531952003
  H   -6.23672200378717      3.18463596255191      7.38220287767073
  O   -6.13236370083800      2.68741274924579      8.23993448752698
  H   -6.69706297460856      1.89274461646147      8.13915697635226
  H   -5.68256403111209      3.79751886130243      5.35609196792772
  O   -6.38763209234764      4.09456326260230      5.96474164050800
  H   -6.17289379298596      5.01697533831256      6.18464261878690
  H   -4.26148573570596      4.86065139116897      9.97633330805495
  O   -4.98937665828647      4.97660590760490      9.33311676121565
  H   -5.47580149264587      4.13150818205676      9.29799072517376
  H   -4.32518817484697      8.18265994780816      5.96899975961036
  O   -4.22652811350777      8.86493111309707      5.29235388958075
  H   -4.54648568383455      8.41910741148326      4.49508801857089
  O   -5.76561705362521      6.73203947701706      7.28863446742698
  H   -6.53931459749347      7.26741203716243      7.48808536846657
  H   -5.55112591240270      6.28020231224721      8.12540003937731
