603

H     0.203621     3.045148    -0.678713
O     0.728380     2.379927    -1.174303
H     1.666605     2.509678    -0.899245
H    -0.064522    -1.306052     3.136580
O     0.326234    -0.603294     2.594494
H    -0.153163     0.208426     2.830570
H    -2.394170     2.419007    -0.538494
O    -2.181786     1.945890     0.283540
H    -2.197556     0.998755     0.055486
H    -4.655013     0.541671     2.172509
O    -4.970015    -0.392397     2.182560
H    -4.464702    -0.866837     1.514265
H     0.073596    -0.300283     0.940994
O    -0.122218    -0.061296     0.014287
H     0.213049     0.837394    -0.101984
H    -0.138419    -3.578859     3.756474
O    -0.418587    -2.750200     4.178916
H     0.226445    -2.580872     4.882000
H    -4.882560     2.527698     1.327129
O    -4.242259     2.117424     1.940567
H    -3.399403     2.103394     1.428066
H    -3.247082     3.910484    -2.209434
O    -2.508262     3.314100    -1.980620
H    -2.149119     3.030272    -2.841225
H    -0.108928    -3.795611     0.481719
O     0.230481    -2.978128     0.900523
H    -0.557636    -2.494349     1.214774
H    -2.365766    -1.540339     2.453824
O    -2.174874    -2.002744     1.611282
H    -2.435370    -1.414090     0.883818
H     2.084137    -1.424209    -1.135105
O     2.317761    -1.680627    -0.219476
H     1.529059    -2.109863     0.164079
H    -1.385971     1.827050     1.907618
O    -1.476529     1.425875     2.782142
H    -1.464192     2.135788     3.449813
H     0.222025    -2.686306    -1.587487
O    -0.533080    -2.074347    -1.643114
H    -0.356257    -1.350765    -1.005301
H    -3.422033    -2.920391    -0.412358
O    -2.702883    -3.408563    -0.834537
H    -1.994634    -2.775008    -1.049869
H     2.780306     0.136011     2.924712
O     2.880298    -0.049931     3.885545
H     2.969349     0.841683     4.293671
H    -3.533171     6.386434    -0.532505
O    -3.295762     7.051775    -1.230458
H    -3.156095     7.895661    -0.757322
H     3.909547     0.599131     1.178549
O     2.959372     0.414871     1.293263
H     2.723866    -0.336176     0.711663
H    -5.773806     0.847721    -1.613241
O    -4.864006     1.176553    -1.485857
H    -4.976932     2.003083    -0.971566
H    -1.214417     5.398729     2.217978
O    -1.837374     4.650390     2.098316
H    -1.915013     4.228869     2.959471
H     3.496574     2.780528     0.425076
O     3.249037     2.739759    -0.514388
H     3.583462     1.898935    -0.866957
H     1.506915    -4.675172    -2.272296
O     1.571613    -3.897997    -1.700088
H     2.365898    -3.435469    -2.048900
H    -0.912375    -0.066537    -2.559282
O    -0.277929     0.587064    -2.880740
H    -0.019903     1.168254    -2.141942
H     1.716960    -4.669863    -0.203146
O     1.828650    -5.310337     0.535198
H     1.363495    -6.120743     0.237818
H    -1.211894    -3.247173    -2.902430
O    -1.033166    -3.927033    -3.565354
H    -0.911297    -4.776310    -3.099410
H    -2.779407     3.298651     4.704806
O    -1.798111     3.297966     4.670882
H    -1.504762     2.894112     5.505968
H     0.959608     5.034100     4.082991
O     0.013050     5.264102     4.135333
H    -0.457376     4.459207     4.390732
H    -1.712016    -4.641668    -0.397017
O    -0.945196    -5.180124    -0.112360
H    -1.291396    -5.872271     0.460517
H    -3.920581     5.844727    -2.589343
O    -4.269034     5.010844    -2.922123
H    -4.114313     4.979999    -3.890468
H    -2.414576    -3.689207     1.912881
O    -2.431289    -4.594570     2.285829
H    -1.491238    -4.831661     2.425436
H    -4.679887    -2.967483    -2.920459
O    -3.826751    -3.197085    -3.327175
H    -3.495653    -3.992821    -2.865193
H     0.344407     1.373506     4.609185
O     0.849383     2.135490     4.278077
H     0.896231     2.792389     4.987035
H    -4.635917    -5.163057    -1.599937
O    -5.338038    -4.812211    -1.024890
H    -5.124739    -5.169898    -0.142060
H     2.369727    -6.504744    -3.983887
O     2.025681    -6.174725    -3.143294
H     2.426792    -6.781910    -2.481102
H     0.485439    -3.359997    -4.027018
O     1.289579    -2.998414    -4.453900
H     0.964883    -2.615935    -5.295737
H     1.975733    -1.747812     2.966215
O     2.133487    -2.677349     2.744852
H     1.447341    -2.890252     2.077836
H    -3.002229    -1.792465    -3.226988
O    -2.580975    -0.905526    -3.160682
H    -3.238515    -0.259966    -3.476477
H    -3.192092     4.977040     1.085802
O    -3.974413     5.350453     0.632370
H    -4.390900     5.905027     1.340411
H     0.879356     2.258004     2.588357
O     0.980616     2.256691     1.617107
H     1.709040     1.635747     1.451217
H     0.187615     5.671342    -0.749313
O     0.708075     6.335794    -1.256001
H     0.848325     7.134210    -0.697689
H     0.336918     7.039489     2.604328
O    -0.024143     6.661035     1.785518
H     0.641253     5.992640     1.522138
H    -2.472468     0.210341     3.330920
O    -2.692312    -0.606109     3.832727
H    -1.932016    -0.645889     4.454693
H    -0.887502     0.543173     6.016502
O    -0.612052     0.027053     5.240287
H     0.102304    -0.576123     5.525296
H     0.728582    -4.988371     1.953055
O     0.186983    -5.101384     2.757297
H     0.332446    -6.022998     3.025749
H    -2.093013    -8.083361     0.408741
O    -1.772302    -7.595737     1.195059
H    -2.559738    -7.289639     1.652580
H    -0.384727     6.882360    -2.312531
O    -1.132028     7.302143    -2.810530
H    -1.921743     7.172687    -2.247168
H    -1.113502     4.317017     0.577999
O    -0.740721     4.381430    -0.317973
H    -1.447148     4.140663    -0.950981
H    -4.407070     2.737969     3.505412
O    -4.405689     2.905064     4.470526
H    -4.487503     2.020484     4.876666
H     2.039376    -3.581216     4.221899
O     1.977177    -4.056992     5.073200
H     2.482000    -3.521002     5.706203
H     4.702204    -3.178456     0.818040
O     4.542000    -3.100497    -0.148586
H     3.682332    -2.623887    -0.229937
H    -2.712624    -0.737684    -1.365718
O    -3.040125    -0.471035    -0.490413
H    -3.842213     0.053283    -0.695116
H    -1.606593    -0.737273    -4.645731
O    -1.096946    -0.519842    -5.447811
H    -0.391608     0.080579    -5.159927
H     1.805878    -1.690196    -3.394473
O     1.897505    -0.945051    -2.770496
H     1.118052    -0.369178    -2.896962
H     3.677670    -3.111842     2.529616
O     4.637118    -3.339104     2.454601
H     4.693507    -4.299305     2.580247
H     3.447243    -6.114056     3.092628
O     3.802808    -5.909291     2.192971
H     3.064034    -5.563583     1.651711
H    -3.338628     1.630518    -4.182570
O    -4.182038     1.156864    -3.993656
H    -4.400543     1.298932    -3.036549
H    -5.082634     4.148784     0.069605
O    -5.519098     3.282063    -0.036953
H    -6.449915     3.400114    -0.318073
H     6.745717    -1.153307    -1.375024
O     5.971518    -1.007839    -0.824896
H     5.555036    -1.877152    -0.629411
H     4.609621    -3.138381    -2.489567
O     3.741438    -2.968335    -2.905714
H     3.747321    -3.583207    -3.663466
H     4.447640    -2.292844     5.603779
O     4.105652    -2.761627     6.395315
H     4.442197    -3.665770     6.310868
H    -0.758799     6.330629     5.086021
O    -1.356641     6.903362     5.626052
H    -1.371937     7.781917     5.187588
H     4.707086    -0.111301    -1.476568
O     3.938761     0.430012    -1.738839
H     3.247254    -0.170905    -2.069608
H    -0.742736     4.547579    -4.032198
O    -1.526612     5.089302    -4.238919
H    -1.377622     5.954898    -3.813160
H     0.661704     3.225730    -2.657388
O     0.668751     3.605320    -3.564816
H     0.716621     2.843888    -4.152786
H    -5.365466    -5.198719     1.765777
O    -4.667520    -5.790436     1.408154
H    -3.827820    -5.374315     1.680740
H     7.893808    -1.649721    -4.049167
O     7.634029    -1.341013    -3.148764
H     7.146068    -0.497056    -3.302068
H     3.742950    -4.988234    -5.280315
O     4.510183    -4.643002    -4.786070
H     4.889461    -5.348556    -4.230982
H    -3.776740     0.005317     4.923950
O    -4.378098     0.466252     5.558117
H    -5.037116    -0.194010     5.847903
H     3.485048    -5.922626    -0.548888
O     4.353260    -5.672316    -0.877150
H     4.431145    -4.711465    -0.723331
H     5.009628    -0.299432    -4.173181
O     4.476817    -1.012152    -4.564658
H     4.151300    -1.596050    -3.847202
H    -1.166504     1.594356    -3.941975
O    -1.818302     2.214469    -4.325865
H    -1.461524     2.550405    -5.170744
H     4.899745    -6.297293    -2.349030
O     5.235952    -6.620315    -3.215505
H     6.057059    -7.096965    -3.027849
H     8.757556    -5.054713    -2.946413
O     8.064541    -5.476239    -2.392718
H     8.104707    -6.433327    -2.495249
H     2.336926     4.733853     0.456877
O     1.757857     4.712133     1.228041
H     1.402047     3.790998     1.302718
H    -4.402514    -2.645949     4.211891
O    -5.297107    -2.307415     4.010654
H    -5.161825    -1.524131     3.437748
H    -5.831947    -3.199939     1.296073
O    -6.293789    -3.759920     1.962458
H    -6.106290    -3.327134     2.814550
H     1.687236     3.460374     6.863602
O     1.063334     3.976325     6.331269
H     0.280086     4.126218     6.903453
H     5.013084    -2.160183     3.598076
O     5.032369    -1.444135     4.264459
H     4.219183    -0.888983     4.110170
H     2.409729    -5.577125     4.808919
O     2.791620    -6.459116     4.545247
H     2.047651    -7.041781     4.370225
H     2.275051    -4.351981    -6.785789
O     2.127051    -4.876117    -5.982199
H     1.869502    -4.181810    -5.313042
H     6.455180    -4.077816    -0.527537
O     7.209260    -4.481830    -0.066709
H     7.717394    -4.900884    -0.788879
H    -1.726377     4.472322     7.705461
O    -0.827532     4.571028     8.090819
H    -0.648754     5.530497     8.118729
H    -5.122050     5.713581    -5.587910
O    -4.512475     4.951631    -5.610741
H    -3.756123     5.169501    -6.176512
H     3.292404    -2.485515    -8.455235
O     3.213066    -3.024765    -7.657109
H     4.089400    -2.985759    -7.226934
H    -0.669506     8.844657    -2.259873
O    -0.548138     9.671660    -1.738425
H     0.214368     9.496973    -1.162086
H     2.075902    -0.914312     5.198456
O     1.504407    -1.443838     5.783778
H     1.596792    -1.101142     6.682180
H     5.217442    -1.979509    -5.711019
O     5.561772    -2.743697    -6.238100
H     5.300547    -3.535011    -5.717707
H     5.713107    -5.208574     4.657964
O     5.190940    -5.126934     5.484847
H     4.470754    -5.760287     5.398063
H    -3.968959     1.126677     7.000276
O    -3.777660     1.600306     7.845476
H    -4.654580     1.983258     8.107657
H    -1.862713     9.625199    -0.724742
O    -2.722799     9.495304    -0.250684
H    -3.335369     10.123832    -0.636290
H    -5.950089     4.699076    -2.933700
O    -6.858463     4.579454    -3.278368
H    -6.766851     3.879375    -3.957631
H     0.117644    -7.050583    -1.173598
O     0.584637    -7.483542    -0.425331
H    -0.095232    -7.687638     0.219785
H    -7.637602     3.794240    -1.971641
O    -7.897258     3.204346    -1.233341
H    -7.752824     2.297012    -1.575949
H     3.982777    -0.896565     6.973229
O     3.989387     0.067619     6.966628
H     4.801394     0.360469     6.536516
H     2.254357     5.815873    -1.171025
O     3.190602     5.524592    -1.058141
H     3.368078     4.987531    -1.853087
H     6.568973    -5.908289     0.642214
O     6.200870    -6.648263     1.170947
H     5.297223    -6.372473     1.403192
H    -3.870312     4.707717     7.785788
O    -3.302706     4.248208     7.125267
H    -3.494377     3.304065     7.232677
H     5.785299    -7.924160     0.100004
O     5.500356    -8.607492    -0.543020
H     4.666067    -8.286462    -0.929815
H    -0.554180     2.027077     7.689523
O    -1.187223     1.963473     6.954178
H    -2.055448     1.818972     7.350322
H    -6.375470    -0.125861     1.051759
O    -6.695048    -0.207044     0.138458
H    -7.613214    -0.479917     0.155177
H    -5.358408    -3.061526    -0.608062
O    -5.106973    -2.360055     0.018974
H    -5.679291    -1.588240    -0.165958
H     4.313767     5.596750     0.327833
O     4.647722     5.694791     1.233292
H     3.952465     6.202418     1.687459
H    -9.033129    -1.743598    -2.269173
O    -8.485195    -1.543762    -1.482735
H    -8.611292    -2.282655    -0.847311
H    -5.524124     3.490092    -5.526656
O    -6.039919     2.776931    -5.114327
H    -5.372385     2.191466    -4.702357
H     3.189964    -0.852655    -5.668491
O     2.333971    -0.974863    -6.133842
H     2.420527    -1.821130    -6.610222
H     8.124923    -1.301738    -6.044312
O     8.134344    -2.167608    -5.591273
H     7.279635    -2.568092    -5.843988
H     7.625942     1.037152    -6.318005
O     7.437865     0.189665    -6.733382
H     6.456704     0.138770    -6.769971
H    -7.846296    -3.699354     0.907850
O    -8.524578    -3.591092     0.223594
H    -8.425252    -4.348631    -0.380393
H    -2.417449     8.739733     1.310864
O    -2.265283     8.149041     2.061938
H    -1.494000     7.598321     1.837241
H    -4.449310     6.427418     3.507438
O    -4.620328     6.855587     2.652165
H    -3.858309     7.443798     2.514546
H     3.401256     3.475857    -3.577040
O     3.246085     4.444389    -3.480936
H     2.280968     4.507647    -3.587632
H    -6.105989    -1.594370    -3.457447
O    -6.186590    -2.176106    -2.675194
H    -6.971754    -1.873144    -2.165636
H     6.473511     1.058741     4.731959
O     6.078356     1.594219     5.436700
H     6.264161     2.514351     5.148795
H     1.364957     1.755805    -5.827752
O     1.171593     1.156945    -5.075437
H     1.536575     0.295643    -5.347449
H    -2.487461     2.936574     10.483270
O    -2.273293     2.030375     10.206832
H    -2.870856     1.831833     9.474039
H     7.635940    -0.481823     3.071337
O     6.884577     0.091868     3.240835
H     6.193521    -0.510619     3.619247
H    -5.636209    -8.051977    -0.736645
O    -4.900821    -8.120435    -0.090872
H    -4.907193    -7.305157     0.434016
H    -5.170836    -0.101406    -4.725715
O    -5.785963    -0.813823    -4.968375
H    -6.625418    -0.373653    -5.164422
H     1.896871    -0.158924    -7.526244
O     1.694411     0.313818    -8.368988
H     2.271703    -0.088283    -9.023444
H     4.880054    -1.344922    -9.319588
O     3.952749    -1.122141    -9.599635
H     3.934549    -1.228820    -10.550082
H     7.576774    -2.557743     4.180356
O     7.723165    -2.590823     3.220648
H     7.231381    -3.382051     2.947116
H     6.740592    -5.880234     2.655583
O     6.800400    -5.205837     3.357200
H     7.676110    -5.289876     3.775993
H    -1.831264     8.944821     3.515454
O    -1.583930     9.247043     4.414712
H    -2.432882     9.376490     4.870795
H    -7.386810     1.582102    -5.255629
O    -7.959698     0.835877    -5.012567
H    -8.862434     1.233111    -4.935423
H     6.934819    -1.028242    -8.420608
O     6.354404    -1.750111    -8.685434
H     6.129031    -2.202500    -7.854469
H    -1.682767     6.272243    -7.013014
O    -2.077615     5.444637    -6.742123
H    -1.829671     5.312138    -5.778588
H     0.001833     3.294154     9.023582
O     0.200762     2.373952     9.275633
H    -0.597002     2.106631     9.781372
H     6.768376    -2.745275    -2.724223
O     6.239091    -3.493003    -2.388632
H     6.713571    -4.300738    -2.633751
H    -4.067750    -3.051924    -4.962033
O    -4.221081    -2.936017    -5.926745
H    -4.770316    -2.144224    -5.981036
H     1.983271     2.172858     8.461856
O     2.646808     2.288488     7.771984
H     3.070628     1.419386     7.654118
H    -6.890980    -5.198346    -1.421754
O    -7.806313    -5.468191    -1.667566
H    -7.940901    -5.063866    -2.549486
H    -3.830314     5.242872     5.704025
O    -3.799029     6.013033     5.115383
H    -2.865735     6.309151     5.210566
H    -7.878309     0.090889    -1.975554
O    -7.389897     0.816744    -2.386833
H    -7.618561     0.808363    -3.340023
H     5.844510     0.151532     0.402061
O     5.621332     0.870985     1.024652
H     6.131604     0.674473     1.837340
H    -6.214261     3.288082     7.397147
O    -6.085140     2.767474     8.224093
H    -6.684010     2.005302     8.133548
H     2.306183    -8.050367    -0.868376
O     2.973395    -8.040906    -1.574459
H     2.734861    -8.763008    -2.173298
H    -2.742462    -3.923183    -6.222753
O    -1.981471    -4.481339    -5.995374
H    -1.710665    -4.198682    -5.093485
H    -5.643775     3.746232     5.311523
O    -6.293535     4.139512     5.930063
H    -6.132038     5.083945     5.919517
H    -1.005433    -7.097012    -3.171573
O    -0.528754    -6.424209    -2.648451
H     0.369311    -6.350939    -3.043528
H     4.447822     2.020813     5.125429
O     3.505755     2.258581     5.005825
H     3.121335     2.271583     5.887744
H     4.107586     4.657341     6.305946
O     4.187789     5.389131     5.689727
H     3.620026     5.150290     4.918440
H     2.764768     3.622411     3.924352
O     2.585865     4.562733     3.761194
H     2.465681     4.664086     2.795174
H     9.401137     0.245003    -1.079942
O     8.592764     0.403076    -0.588784
H     8.419960    -0.416617    -0.096104
H    -2.103730     5.295859     10.657964
O    -2.824403     4.665089     10.887367
H    -3.043273     4.839219     11.803022
H     7.986047    -2.983568     0.308258
O     8.405246    -2.136719     0.565287
H     8.339824    -2.134465     1.527711
H     5.370437     3.676402     3.526677
O     6.026683     3.940874     4.193170
H     5.612757     4.656247     4.697791
H    -4.211295     4.996613     9.791246
O    -4.844587     5.148439     9.069585
H    -5.455136     4.398752     9.065037
H    -6.997374    -3.468671    -3.505536
O    -7.617102    -4.079705    -3.955858
H    -7.095544    -4.519567    -4.659009
H     0.023330     6.108191     10.780438
O    -0.841988     6.438447     10.534226
H    -0.727206     6.872031     9.669306
H     2.592527     1.526102    -4.110156
O     3.471224     1.878195    -3.871912
H     3.791697     1.362860    -3.101678
H    -6.964890    -0.241555     7.209826
O    -7.474722     0.535313     7.492399
H    -8.098655     0.719324     6.789124
H    -2.713763    -9.863498    -0.875637
O    -2.654695    -8.920541    -1.029757
H    -3.561403    -8.558870    -0.786667
H    -10.068317     3.084471    -4.897432
O    -10.183195     2.165857    -4.619584
H    -10.399341     2.246377    -3.669641
H    -2.054790    -3.030004     4.594999
O    -2.928713    -3.472068     4.663504
H    -2.921663    -4.087690     3.905424
H    -0.156274    -7.978673     2.451776
O     0.670468    -7.767222     2.898604
H     1.388088    -8.061007     2.309991
H     6.718811    -2.370341     6.374469
O     7.168838    -3.077848     5.908022
H     6.540216    -3.813783     5.868664
H    -5.260966    -2.021995     6.928379
O    -5.938086    -1.523527     6.445992
H    -5.921617    -1.897962     5.535769
H     0.836474     3.069279    -7.114755
O     1.754526     2.739418    -7.171984
H     1.741462     1.995000    -7.801205
H    -3.964421     8.741598     6.690404
O    -3.962089     8.742162     5.733037
H    -4.085944     7.815218     5.462640
H    -2.072712     10.331292    -2.715071
O    -2.974861     10.511679    -3.016086
H    -2.904927     11.148243    -3.726836
H     9.426106    -4.043747     4.021364
O     9.146514    -4.724745     4.640852
H     8.717110    -4.255751     5.367258
H    -0.829515    -5.834153    -5.941130
O    -0.118999    -6.413812    -5.633693
H     0.699099    -5.898533    -5.779918
H     1.816639     8.289171     0.680031
O     1.512582     8.612834    -0.196595
H     2.327097     8.654402    -0.727011
H     3.499164     2.969215    -6.663752
O     4.327040     2.677383    -6.256134
H     4.082661     2.402372    -5.347387
H     3.726413     7.148272    -1.218332
O     3.930494     8.084959    -1.429013
H     4.299429     8.032455    -2.322632
H     4.400708     0.039120    -7.923451
O     4.776329     0.180928    -7.052693
H     4.594465     1.112158    -6.805451
H     6.033722     1.958485    -0.480285
O     6.597885     2.153903    -1.242389
H     7.423866     1.676321    -1.049627
H     6.705191    -8.401872    -1.647364
O     7.336196    -8.186734    -2.387430
H     7.711910    -9.017945    -2.672642
H    -5.284504    -5.770822    -5.434099
O    -5.902572    -5.098038    -5.745368
H    -5.353214    -4.328639    -5.981445
H     0.676645     7.164461     7.613359
O    -0.224864     7.189030     7.973098
H    -0.780616     7.205201     7.155832
H    -8.886240    -2.825300    -4.119249
O    -9.407551    -2.017868    -3.949168
H    -9.123281    -1.351119    -4.578105
H    -2.395059    -5.974176    -2.167748
O    -3.271154    -5.685552    -2.440213
H    -3.456483    -6.061226    -3.326189
H    -2.972080    -5.877421    -5.439699
O    -3.565790    -6.488349    -4.963536
H    -3.081514    -7.309718    -4.808826
H    -1.390911     3.759175    -6.980377
O    -0.849285     3.003014    -6.712949
H    -1.086404     2.219632    -7.264973
H    -0.200202     0.454772    -8.224678
O    -1.096386     0.687114    -7.939808
H    -1.270361     0.160779    -7.143401
H    -10.424321     4.054720    -2.729989
O    -10.490067     3.274123    -2.164321
H    -9.660729     3.247851    -1.655467
H     4.579181     4.096614     1.722668
O     4.372643     3.174004     1.997288
H     5.090386     2.600946     1.715134
H     6.489133     1.435813    -4.226174
O     6.187393     0.808295    -3.534533
H     6.217168     1.301121    -2.688987
H     9.644324    -2.192786    -0.946894
O     9.919627    -1.977075    -1.846778
H     9.119090    -1.636452    -2.288242
H     9.982242    -3.281604    -3.119095
O     9.714888    -3.931661    -3.795939
H     9.322498    -3.421691    -4.515172
H    -7.674339    -8.572302    -1.703891
O    -6.938498    -7.974517    -1.827460
H    -7.319211    -7.063038    -1.814461
H     4.155192     6.113274    -3.812809
O     4.814998     6.815459    -3.726006
H     5.652186     6.362966    -3.589857
H     0.034670    -8.064529    -5.191062
O     0.208459    -9.032907    -5.090365
H     0.685380    -9.205747    -5.921642
H    -2.302229    -8.662338    -2.758790
O    -2.056594    -8.382986    -3.660729
H    -1.434478    -9.014389    -4.035444
H     2.313478    -10.694733    -3.618009
O     2.170207    -9.755689    -3.496007
H     1.365711    -9.485708    -4.027737
H     6.835781     3.369524    -4.575401
O     6.894469     2.693241    -5.278169
H     6.101015     2.827628    -5.818570
H    -3.549782    -3.740020     7.700304
O    -3.664979    -2.950688     7.172727
H    -3.413724    -3.186613     6.253623
H    -0.631902    -3.327330    -6.743136
O     0.004504    -2.600592    -6.749270
H    -0.474370    -1.823502    -6.406826
H     0.649050     0.448252     8.744036
O     0.657661    -0.264510     8.101202
H    -0.264116    -0.554808     8.013124
H    -5.842175     7.383321    -4.237950
O    -6.343665     6.764975    -4.800809
H    -6.629589     6.032010    -4.211628
H    -4.290098     9.118532    -3.244559
O    -4.823872     8.320766    -3.140833
H    -4.414672     7.840084    -2.403147
H    -9.716989     5.806123    -4.636394
O    -10.248557     4.999826    -4.475162
H    -11.129706     5.199798    -4.793057
H     2.763991     6.515268     6.149883
O     1.803734     6.609475     6.248056
H     1.461912     5.695746     6.143243
H     4.794028     8.569264     0.099657
O     5.111677     8.567860     1.020478
H     5.520314     7.703985     1.148731
H     4.294426    -7.465147    -4.387214
O     3.533007    -7.804048    -4.895404
H     3.245471    -8.592954    -4.389984
H     0.367848     8.660648     4.250801
O     1.046779     8.018035     4.020569
H     1.274392     7.523248     4.833746
H     5.233465     4.224457    -3.155423
O     6.195002     4.194597    -3.104030
H     6.405114     3.612356    -2.357171
H    -2.566815    -1.559738     7.559226
O    -2.057988    -0.766041     7.781146
H    -2.684819    -0.142338     8.157874
H    -9.037180     7.946046    -4.130435
O    -8.972917     7.363654    -4.888815
H    -8.015585     7.202138    -5.024872
H     3.552974    -8.966467     1.056909
O     2.876828    -8.331852     1.299386
H     3.350896    -7.528795     1.586512
H     3.575561     8.186440     1.844160
O     2.786414     7.620733     1.954774
H     2.339589     7.853152     2.781546
N     2.050621    -8.648845    -7.178942
H     1.656446    -7.884191    -7.611536
H     2.718889    -8.262893    -6.583264
