27
Coordinates from ORCA-job grain_mol_opt.QMRegion
  H   -4.57320170501642     -5.18191782446124     -1.59973296184202
  O   -5.31783123633615     -4.88830679689292     -1.03726703873843
  H   -5.03505093688752     -5.18466110258866     -0.14550421224787
  H   -5.28901991930580     -5.17020618280347      1.82157471342345
  O   -4.60918931594555     -5.78675401676276      1.47071290303553
  H   -3.76659997823874     -5.35422731601036      1.73344324864039
  H   -5.78220362673011     -3.16023738293790      1.28096504017295
  O   -6.28819464199682     -3.69204072030588      1.94594695003402
  H   -6.07668733339276     -3.24747816435633      2.79446153499361
  H   -9.04329283590418     -1.76207712224939     -2.39824520528542
  O   -8.53387337459268     -1.54138051724872     -1.58853139001408
  H   -8.66119798592342     -2.25234829719727     -0.92582572854754
  H   -7.90931777035231     -3.58299723034873      0.92226929178697
  O   -8.61457392798131     -3.56334694656727      0.24955646722789
  H   -8.34949288367347     -4.23203879347805     -0.41306757172807
  H   -5.65616114928709     -8.24484515169149     -0.45291882440321
  O   -4.84861248792991     -8.27763300365377      0.10909264685988
  H   -4.80322798596826     -7.41186548354508      0.54274577329958
  H   -6.89930818844131     -5.29979551844506     -1.50160239374513
  O   -7.85058686467576     -5.45383876292843     -1.73065126286078
  H   -7.94298152393466     -5.01780006034917     -2.60902130123195
  H   -7.84957817110427     -8.12803277782776     -0.50721646626431
  O   -7.20394397541384     -8.24885346582709     -1.22415427313993
  H   -7.35073574724975     -7.44554208285961     -1.74869446471573
  O   -9.24281445446359     -6.98857430695913      0.37294135226569
  H   -9.20932062684980     -6.45468320775263      1.17339095938626
  H   -9.10516798980492     -6.34300623680982     -0.33648161184009
