603

H     0.202116     3.030997    -0.672752
O     0.723942     2.360609    -1.164109
H     1.663221     2.489697    -0.891804
H    -0.075503    -1.298696     3.168593
O     0.315158    -0.600489     2.620877
H    -0.160010     0.214709     2.853020
H    -2.397767     2.412307    -0.527385
O    -2.188900     1.943038     0.297891
H    -2.202159     0.995079     0.074200
H    -4.662963     0.555701     2.197489
O    -4.977929    -0.379020     2.213335
H    -4.473695    -0.854298     1.544832
H     0.064717    -0.304706     0.964879
O    -0.136535    -0.069288     0.038612
H     0.206558     0.825523    -0.085558
H    -0.158690    -3.569014     3.797172
O    -0.435924    -2.738798     4.219830
H     0.214702    -2.566245     4.916994
H    -4.884931     2.537559     1.339707
O    -4.246631     2.126328     1.954802
H    -3.403463     2.108769     1.442275
H    -3.247918     3.896464    -2.206469
O    -2.511242     3.298830    -1.974146
H    -2.152725     3.009387    -2.833353
H    -0.130008    -3.806496     0.529880
O     0.211318    -2.986510     0.939231
H    -0.572903    -2.495760     1.250043
H    -2.376642    -1.523684     2.487162
O    -2.191584    -1.992245     1.646449
H    -2.447643    -1.408312     0.913496
H     2.071102    -1.446333    -1.106279
O     2.302098    -1.695479    -0.187599
H     1.514074    -2.124546     0.196177
H    -1.388892     1.830359     1.921780
O    -1.483298     1.434616     2.798463
H    -1.465578     2.148512     3.461815
H     0.204838    -2.706629    -1.551545
O    -0.551911    -2.095755    -1.604317
H    -0.369750    -1.366967    -0.974248
H    -3.440701    -2.914558    -0.373894
O    -2.724857    -3.419528    -0.780167
H    -2.010494    -2.796444    -1.007300
H     2.773833     0.135162     2.944505
O     2.871802    -0.045267     3.906757
H     2.965198     0.848287     4.309352
H    -3.526711     6.382691    -0.543039
O    -3.288336     7.043412    -1.244802
H    -3.145620     7.889611    -0.776675
H     3.901968     0.585493     1.195441
O     2.951269     0.404675     1.312471
H     2.713641    -0.348912     0.734632
H    -5.782572     0.845127    -1.592747
O    -4.871727     1.170587    -1.464592
H    -4.981883     2.000961    -0.955902
H    -1.208314     5.404526     2.210743
O    -1.833765     4.657240     2.096696
H    -1.910684     4.240982     2.960416
H     3.494714     2.762946     0.429673
O     3.245400     2.718095    -0.509023
H     3.577877     1.874839    -0.858226
H     1.486361    -4.702693    -2.226814
O     1.549945    -3.921908    -1.658116
H     2.345631    -3.463727    -2.010198
H    -0.923765    -0.089461    -2.534618
O    -0.290332     0.562611    -2.860813
H    -0.028321     1.146278    -2.125536
H     1.694726    -4.688403    -0.153094
O     1.798368    -5.321048     0.592243
H     1.336249    -6.135381     0.296905
H    -1.230077    -3.271298    -2.858011
O    -1.059032    -3.954419    -3.519327
H    -0.931640    -4.802585    -3.051180
H    -2.776680     3.323387     4.711511
O    -1.795655     3.318621     4.676599
H    -1.502401     2.919358     5.513894
H     0.966300     5.045024     4.076335
O     0.020268     5.277513     4.128965
H    -0.451448     4.474958     4.388947
H    -1.735149    -4.595397    -0.408756
O    -0.962417    -5.157358    -0.182239
H    -1.299330    -5.778993     0.476728
H    -3.916630     5.830177    -2.596853
O    -4.268085     4.995490    -2.924441
H    -4.113688     4.958418    -3.892687
H    -2.432899    -3.576623     1.952172
O    -2.494289    -4.494101     2.303773
H    -1.551300    -4.778740     2.391947
H    -4.699384    -2.983904    -2.877111
O    -3.846756    -3.216108    -3.282522
H    -3.515069    -4.010374    -2.818566
H     0.341836     1.388382     4.624862
O     0.846446     2.147895     4.288341
H     0.897992     2.808094     4.993933
H    -4.633499    -5.155965    -1.562864
O    -5.345361    -4.797310    -0.999254
H    -5.152483    -5.165860    -0.120340
H     2.319724    -6.492109    -4.012105
O     1.983748    -6.160115    -3.159489
H     2.415951    -6.734321    -2.494652
H     0.461626    -3.387744    -3.985629
O     1.263803    -3.020562    -4.409709
H     0.944082    -2.652105    -5.259364
H     1.963423    -1.746294     2.996120
O     2.116401    -2.678360     2.782581
H     1.432393    -2.894040     2.114731
H    -3.018019    -1.813330    -3.191466
O    -2.596807    -0.926413    -3.126428
H    -3.251401    -0.281697    -3.449577
H    -3.187878     4.981672     1.082938
O    -3.970164     5.353737     0.628317
H    -4.384229     5.914007     1.333279
H     0.878289     2.260425     2.598031
O     0.977437     2.252647     1.626745
H     1.704829     1.629614     1.463266
H     0.192161     5.656674    -0.758594
O     0.713524     6.317085    -1.269432
H     0.856739     7.118122    -0.715680
H     0.347635     7.043232     2.587204
O    -0.015624     6.660634     1.771293
H     0.648223     5.989582     1.510553
H    -2.479595     0.224909     3.355421
O    -2.700612    -0.588766     3.861978
H    -1.938584    -0.624572     4.483070
H    -0.890774     0.569765     6.037079
O    -0.620211     0.046202     5.264133
H     0.095808    -0.555042     5.550793
H     0.705892    -4.949653     1.960975
O     0.166517    -5.075087     2.769434
H     0.399306    -5.983952     3.041565
H    -2.057980    -8.199359     0.651934
O    -1.642691    -7.683170     1.372692
H    -2.305009    -7.631496     2.094777
H    -0.377994     6.860388    -2.328341
O    -1.124645     7.279571    -2.827953
H    -1.914193     7.154941    -2.263444
H    -1.111923     4.313139     0.577340
O    -0.739697     4.371767    -0.319153
H    -1.446755     4.128945    -0.950644
H    -4.406831     2.759755     3.515402
O    -4.405098     2.932348     4.479550
H    -4.488333     2.050675     4.891054
H     2.024166    -3.573009     4.263773
O     1.955607    -4.040856     5.118897
H     2.467891    -3.506145     5.746924
H     4.685510    -3.194554     0.856107
O     4.524935    -3.119594    -0.110442
H     3.665763    -2.643474    -0.194469
H    -2.724901    -0.749038    -1.335098
O    -3.054795    -0.478956    -0.461314
H    -3.851780     0.051352    -0.670950
H    -1.620673    -0.769242    -4.615792
O    -1.115319    -0.554393    -5.420742
H    -0.404152     0.041553    -5.137627
H     1.790571    -1.722880    -3.361594
O     1.883268    -0.974398    -2.740253
H     1.106588    -0.397051    -2.873035
H     3.661793    -3.118041     2.567585
O     4.620554    -3.346809     2.495214
H     4.673740    -4.307470     2.622049
H     3.423831    -6.115387     3.147083
O     3.779440    -5.912204     2.247241
H     3.038565    -5.573929     1.703201
H    -3.346249     1.604922    -4.167430
O    -4.191680     1.135558    -3.974789
H    -4.407873     1.283902    -3.018607
H    -5.081051     4.151977     0.073183
O    -5.520730     3.285968    -0.026979
H    -6.450854     3.405685    -0.309742
H     6.731117    -1.188417    -1.352098
O     5.959243    -1.036500    -0.800363
H     5.539955    -1.903679    -0.600155
H     4.588884    -3.176456    -2.454026
O     3.721130    -3.004849    -2.870191
H     3.723319    -3.626299    -3.624262
H     4.435845    -2.283139     5.636323
O     4.092332    -2.746624     6.430427
H     4.427414    -3.651948     6.350749
H    -0.748176     6.351412     5.073737
O    -1.344447     6.928606     5.610852
H    -1.357507     7.804784     5.167498
H     4.696196    -0.141558    -1.456925
O     3.928657     0.400634    -1.720151
H     3.236020    -0.200594    -2.048664
H    -0.743937     4.516118    -4.034727
O    -1.526623     5.059095    -4.243081
H    -1.373990     5.926789    -3.823099
H     0.658443     3.198430    -2.653466
O     0.664777     3.573050    -3.562759
H     0.711909     2.808293    -4.146614
H    -5.424560    -5.033315     1.869678
O    -4.783046    -5.743106     1.579408
H    -3.908121    -5.301694     1.678282
H     7.876028    -1.703665    -4.023155
O     7.619285    -1.387863    -3.124086
H     7.132614    -0.544324    -3.282240
H     3.692847    -5.085984    -5.268482
O     4.455974    -4.711338    -4.789426
H     4.840427    -5.421341    -4.242058
H    -3.781768     0.033638     4.949657
O    -4.382872     0.498947     5.580797
H    -5.043316    -0.157224     5.875407
H     3.458204    -5.946095    -0.496172
O     4.330890    -5.699089    -0.814628
H     4.407330    -4.736716    -0.673416
H     4.995783    -0.348010    -4.150812
O     4.459204    -1.059362    -4.538819
H     4.133968    -1.641796    -3.819612
H    -1.176106     1.564895    -3.927137
O    -1.826527     2.185205    -4.313451
H    -1.469357     2.514446    -5.160974
H     4.877042    -6.330322    -2.291939
O     5.210786    -6.655202    -3.157286
H     6.027501    -7.137891    -2.969600
H     8.733509    -5.103837    -2.900717
O     8.042553    -5.519267    -2.340502
H     8.075661    -6.476966    -2.440426
H     2.339978     4.720451     0.451503
O     1.761052     4.704477     1.223014
H     1.403285     3.784643     1.302897
H    -4.410852    -2.619363     4.256300
O    -5.304624    -2.281433     4.050668
H    -5.168780    -1.498935     3.475578
H    -5.830343    -3.080903     1.320260
O    -6.304647    -3.631548     1.997720
H    -6.117512    -3.171095     2.841223
H     1.692057     3.484724     6.865716
O     1.068588     3.998784     6.331006
H     0.286570     4.154432     6.903156
H     5.000352    -2.163631     3.630152
O     5.021555    -1.443380     4.292401
H     4.210114    -0.887333     4.134814
H     2.386645    -5.568343     4.862064
O     2.769243    -6.450522     4.605387
H     2.025174    -7.033010     4.425908
H     2.247476    -4.531671    -6.769493
O     2.078858    -5.018049    -5.952643
H     1.815201    -4.325934    -5.298129
H     6.434787    -4.107992    -0.486006
O     7.188919    -4.509005    -0.022543
H     7.694990    -4.934540    -0.742551
H    -1.718548     4.510983     7.704175
O    -0.819452     4.609034     8.088773
H    -0.637540     5.568151     8.110814
H    -5.120761     5.685407    -5.593848
O    -4.513751     4.921417    -5.612415
H    -3.756767     5.133856    -6.179576
H     3.271986    -2.547840    -8.421377
O     3.184045    -3.078066    -7.618530
H     4.061027    -3.054357    -7.190353
H    -0.657855     8.823575    -2.286293
O    -0.534172     9.653136    -1.769374
H     0.228625     9.479797    -1.192987
H     2.067621    -0.900974     5.224178
O     1.492619    -1.422916     5.813038
H     1.590597    -1.077702     6.709800
H     5.198077    -2.040260    -5.679991
O     5.543446    -2.807829    -6.200499
H     5.269382    -3.596542    -5.680850
H     5.693078    -5.206472     4.706617
O     5.171500    -5.118988     5.533486
H     4.449784    -5.751224     5.449609
H    -3.970637     1.167233     7.019657
O    -3.777782     1.643616     7.862563
H    -4.653193     2.031467     8.122940
H    -1.847696     9.615715    -0.754804
O    -2.707870     9.490869    -0.279350
H    -3.318910     10.118853    -0.668263
H    -5.949416     4.688349    -2.933340
O    -6.858642     4.568319    -3.275798
H    -6.769035     3.864695    -3.951723
H     0.092721    -7.067766    -1.113012
O     0.567586    -7.495968    -0.370530
H    -0.110204    -7.694478     0.283894
H    -7.638465     3.793599    -1.964497
O    -7.899249     3.208175    -1.222846
H    -7.757442     2.298888    -1.561184
H     3.976285    -0.877676     6.997989
O     3.984760     0.086496     6.986472
H     4.797041     0.375131     6.553931
H     2.259076     5.793277    -1.182937
O     3.194392     5.500186    -1.068409
H     3.370285     4.958197    -1.860554
H     6.544925    -5.931536     0.693874
O     6.176695    -6.665723     1.230452
H     5.272070    -6.387979     1.456619
H    -3.861927     4.751968     7.784945
O    -3.296463     4.286966     7.126374
H    -3.490163     3.344070     7.239689
H     5.755126    -7.948168     0.164133
O     5.467864    -8.635688    -0.472872
H     4.636114    -8.312878    -0.864735
H    -0.552347     2.062431     7.701210
O    -1.186429     1.995298     6.966934
H    -2.054571     1.856323     7.365023
H    -6.386028    -0.110032     1.080431
O    -6.703962    -0.202058     0.167854
H    -7.624631    -0.466511     0.184862
H    -5.377100    -3.056490    -0.569006
O    -5.130872    -2.358045     0.063726
H    -5.694057    -1.580897    -0.129934
H     4.319322     5.577118     0.315913
O     4.653722     5.679798     1.220704
H     3.959905     6.191734     1.672101
H    -9.048840    -1.741109    -2.231024
O    -8.500986    -1.538245    -1.445059
H    -8.629309    -2.273737    -0.806464
H    -5.528997     3.463040    -5.519464
O    -6.046278     2.753712    -5.102295
H    -5.379451     2.168859    -4.688153
H     3.173015    -0.903009    -5.642983
O     2.316689    -1.023094    -6.108143
H     2.401212    -1.873582    -6.579254
H     8.106313    -1.368344    -6.020139
O     8.114453    -2.231084    -5.561404
H     7.257878    -2.631431    -5.810144
H     7.613883     0.971854    -6.305991
O     7.424172     0.122776    -6.717248
H     6.442790     0.072987    -6.752321
H    -7.870315    -3.679507     0.956116
O    -8.546230    -3.577174     0.269521
H    -8.446776    -4.338368    -0.330204
H    -2.403187     8.743442     1.286157
O    -2.252287     8.156519     2.040465
H    -1.482477     7.602596     1.818470
H    -4.439206     6.449209     3.497295
O    -4.610068     6.872738     2.639712
H    -3.846631     7.458170     2.497853
H     3.397802     3.436960    -3.575896
O     3.244993     4.406553    -3.484501
H     2.280162     4.471512    -3.591944
H    -6.121157    -1.609446    -3.420248
O    -6.204063    -2.184941    -2.633256
H    -6.988958    -1.875656    -2.127485
H     6.469526     1.058235     4.744631
O     6.076068     1.599205     5.446287
H     6.264932     2.516924     5.152908
H     1.355475     1.708251    -5.815410
O     1.160954     1.114488    -5.059495
H     1.524104     0.250561    -5.327404
H    -2.481487     2.992541     10.491538
O    -2.270607     2.084051     10.220024
H    -2.869134     1.883561     9.488652
H     7.626979    -0.493791     3.091095
O     6.877355     0.082640     3.259342
H     6.185284    -0.516770     3.640540
H    -5.703549    -8.066374    -0.771160
O    -4.961918    -8.140517    -0.126760
H    -4.999239    -7.334151     0.410573
H    -5.184068    -0.125537    -4.698021
O    -5.802401    -0.837609    -4.933647
H    -6.639951    -0.395724    -5.133771
H     1.881179    -0.216651    -7.503535
O     1.679022     0.253459    -8.348363
H     2.254834    -0.153817    -9.000984
H     4.861170    -1.417575    -9.292020
O     3.936053    -1.188317    -9.574224
H     3.914891    -1.309601    -10.522809
H     7.562926    -2.564295     4.212872
O     7.708805    -2.602291     3.253345
H     7.215250    -3.393909     2.983775
H     6.715900    -5.891045     2.706736
O     6.779616    -5.213795     3.405930
H     7.655622    -5.299529     3.823088
H    -1.814863     8.959442     3.489092
O    -1.566369     9.265931     4.386599
H    -2.414734     9.400501     4.842222
H    -7.395956     1.561608    -5.236138
O    -7.970966     0.818711    -4.987689
H    -8.872516     1.219068    -4.912851
H     6.915936    -1.106999    -8.394698
O     6.333109    -1.828138    -8.656151
H     6.105759    -2.276045    -7.822948
H    -1.680912     6.226787    -7.024082
O    -2.079424     5.402722    -6.747807
H    -1.829897     5.274049    -5.784216
H     0.007618     3.335260     9.027986
O     0.203628     2.415713     9.284627
H    -0.594119     2.153686     9.793002
H     6.749738    -2.789678    -2.691176
O     6.218928    -3.532429    -2.347782
H     6.686482    -4.344477    -2.592258
H    -4.085750    -3.080664    -4.920241
O    -4.241796    -2.970240    -5.884878
H    -4.788469    -2.176994    -5.942507
H     1.986054     2.205023     8.471386
O     2.648732     2.315351     7.779917
H     3.070907     1.444781     7.666516
H    -6.916185    -5.195937    -1.371612
O    -7.834095    -5.462957    -1.608789
H    -7.968810    -5.065056    -2.493878
H    -3.821659     5.275356     5.700326
O    -3.789155     6.041848     5.107072
H    -2.855016     6.336420     5.199671
H    -7.889673     0.090598    -1.948551
O    -7.398879     0.812768    -2.363247
H    -7.627784     0.800351    -3.316549
H     5.835074     0.128893     0.419640
O     5.613819     0.851981     1.039100
H     6.125007     0.658537     1.851894
H    -6.209542     3.336733     7.406064
O    -6.081041     2.819936     8.235584
H    -6.682687     2.059516     8.150161
H     2.266361    -8.073518    -0.814805
O     2.947783    -8.065549    -1.508266
H     2.721294    -8.780744    -2.119316
H    -2.754996    -3.973515    -6.172168
O    -2.001360    -4.539193    -5.939778
H    -1.724074    -4.246323    -5.043299
H    -5.639659     3.781528     5.317277
O    -6.288098     4.179247     5.934296
H    -6.124303     5.123229     5.918683
H    -1.030656    -7.120227    -3.129651
O    -0.559333    -6.442363    -2.610506
H     0.350064    -6.381572    -2.987577
H     4.447312     2.028460     5.133011
O     3.505577     2.268125     5.013337
H     3.122482     2.286760     5.895681
H     4.115275     4.672289     6.299075
O     4.195333     5.401133     5.679362
H     3.627229     5.158782     4.909444
H     2.768192     3.627563     3.924627
O     2.590145     4.567199     3.756496
H     2.470489     4.663489     2.789869
H     9.389959     0.203703    -1.066519
O     8.584698     0.368814    -0.572420
H     8.408532    -0.448869    -0.077398
H    -2.091555     5.351532     10.652416
O    -2.813825     4.723979     10.885868
H    -3.031410     4.903885     11.800722
H     7.968677    -3.011898     0.341214
O     8.390484    -2.164718     0.594059
H     8.325511    -2.157788     1.556408
H     5.373456     3.672319     3.524466
O     6.030219     3.939034     4.189633
H     5.618656     4.658901     4.689575
H    -4.200204     5.053459     9.789018
O    -4.833732     5.202382     9.066912
H    -5.446287     4.454378     9.067588
H    -7.018276    -3.480136    -3.458436
O    -7.639899    -4.092541    -3.904072
H    -7.119628    -4.537757    -4.605203
H     0.037512     6.159136     10.768802
O    -0.827243     6.489879     10.521250
H    -0.711904     6.918506     9.653922
H     2.584216     1.485251    -4.098244
O     3.462723     1.838552    -3.860977
H     3.783697     1.324958    -3.089715
H    -6.970874    -0.192199     7.238953
O    -7.478003     0.587707     7.517227
H    -8.101953     0.770029     6.813548
H    -2.730611    -9.891156    -0.846870
O    -2.629311    -8.941196    -0.952942
H    -3.546505    -8.579464    -0.774936
H    -10.073424     3.073113    -4.884848
O    -10.190727     2.156528    -4.601325
H    -10.405794     2.243463    -3.651711
H    -2.061962    -2.941998     4.616538
O    -2.921497    -3.407946     4.711577
H    -2.914920    -4.007136     3.940252
H    -0.041317    -8.009478     2.508346
O     0.770160    -7.799014     2.998368
H     1.489930    -8.075426     2.397552
H     6.706362    -2.362246     6.406549
O     7.155222    -3.073233     5.944371
H     6.524973    -3.807990     5.907870
H    -5.271718    -1.978562     6.967249
O    -5.948027    -1.482367     6.481645
H    -5.933415    -1.861963     5.574411
H     0.829447     3.016048    -7.110077
O     1.746760     2.684553    -7.166068
H     1.732043     1.935219    -7.789795
H    -3.945963     8.779840     6.666771
O    -3.945130     8.774950     5.709415
H    -4.071181     7.846791     5.444365
H    -2.057544     10.311126    -2.749005
O    -2.959426     10.492388    -3.050334
H    -2.888123     11.124425    -3.764986
H     9.408617    -4.054943     4.059728
O     9.129714    -4.731051     4.684841
H     8.700501    -4.256630     5.407766
H    -0.746697    -6.008644    -5.812078
O    -0.043566    -6.575367    -5.478558
H     0.792401    -6.115397    -5.696835
H     1.829290     8.278273     0.654595
O     1.525172     8.597879    -0.223504
H     2.339317     8.633962    -0.754982
H     3.491795     2.912509    -6.659764
O     4.319657     2.623235    -6.250391
H     4.075162     2.351618    -5.340696
H     3.734467     7.121523    -1.238391
O     3.940486     8.056563    -1.454551
H     4.308994     7.997766    -2.348017
H     4.385365    -0.028679    -7.902563
O     4.763373     0.119901    -7.033937
H     4.582543     1.052547    -6.792783
H     6.028899     1.929506    -0.472508
O     6.593576     2.120762    -1.235226
H     7.417943     1.640704    -1.041100
H     6.674168    -8.437358    -1.578718
O     7.310698    -8.229181    -2.315883
H     7.675413    -9.064848    -2.602176
H    -5.312722    -5.796920    -5.374118
O    -5.930117    -5.124741    -5.688408
H    -5.378535    -4.358233    -5.929542
H     0.691236     7.195586     7.595337
O    -0.210019     7.224284     7.955531
H    -0.766190     7.237693     7.138502
H    -8.905993    -2.835447    -4.074143
O    -9.424956    -2.025858    -3.907131
H    -9.140226    -1.363077    -4.540078
H    -2.422430    -5.992028    -2.107934
O    -3.298315    -5.700778    -2.379703
H    -3.485945    -6.081086    -3.263307
H    -2.997934    -5.911681    -5.376189
O    -3.598891    -6.518018    -4.901210
H    -3.117913    -7.338497    -4.730616
H    -1.397142     3.712138    -6.978344
O    -0.857408     2.956787    -6.705408
H    -1.094744     2.170267    -7.253310
H    -0.213836     0.399078    -8.203853
O    -1.109351     0.635970    -7.920020
H    -1.284202     0.114167    -7.120875
H    -10.425569     4.056543    -2.722587
O    -10.492647     3.279515    -2.152131
H    -9.662793     3.254401    -1.644101
H     4.581991     4.084054     1.718988
O     4.373058     3.164043     2.000180
H     5.088128     2.586708     1.719653
H     6.480132     1.385231    -4.215908
O     6.176911     0.763378    -3.520039
H     6.209372     1.260804    -2.677496
H     9.627851    -2.233009    -0.919387
O     9.904011    -2.020100    -1.819677
H     9.103205    -1.682931    -2.263453
H     9.961640    -3.333178    -3.086112
O     9.693796    -3.986690    -3.759232
H     9.299407    -3.480856    -4.480337
H    -7.707706    -8.571034    -1.624968
O    -6.973715    -7.973520    -1.760343
H    -7.353251    -7.062084    -1.750908
H     4.158637     6.070798    -3.827297
O     4.820119     6.771933    -3.744470
H     5.656242     6.317842    -3.606901
H     0.084096    -8.181964    -5.180585
O     0.107417    -9.164327    -5.047305
H     0.258205    -9.529922    -5.919014
H    -2.340635    -8.678543    -2.674036
O    -2.112779    -8.414612    -3.586685
H    -1.467273    -9.033953    -3.945764
H     2.168151    -10.824631    -3.452565
O     2.128074    -9.869536    -3.438596
H     1.338975    -9.600197    -3.959722
H     6.831057     3.316793    -4.576356
O     6.888185     2.636772    -5.275473
H     6.094252     2.768746    -5.815771
H    -3.560699    -3.694976     7.749466
O    -3.679887    -2.912327     7.212759
H    -3.427691    -3.155008     6.297331
H    -0.648802    -3.377056    -6.701614
O    -0.018727    -2.645430    -6.712403
H    -0.499802    -1.869104    -6.372149
H     0.647450     0.486642     8.764118
O     0.653454    -0.229871     8.125471
H    -0.268903    -0.518258     8.039634
H    -5.835635     7.364751    -4.252285
O    -6.339572     6.744680    -4.811085
H    -6.626540     6.015708    -4.217644
H    -4.278399     9.101224    -3.270142
O    -4.814478     8.305703    -3.161059
H    -4.405521     7.827975    -2.421327
H    -9.714870     5.795223    -4.638857
O    -10.248611     4.991323    -4.472617
H    -11.129211     5.191875    -4.791669
H     2.775646     6.532724     6.134041
O     1.815667     6.630100     6.232637
H     1.471499     5.716788     6.132633
H     4.806564     8.547266     0.070561
O     5.124536     8.550262     0.991301
H     5.531415     7.686206     1.124003
H     4.131046    -7.437678    -4.313692
O     3.372928    -7.722701    -4.855720
H     3.091225    -8.562298    -4.477301
H     0.383953     8.673786     4.224703
O     1.060715     8.027837     3.997552
H     1.287982     7.537243     4.813345
H     5.232390     4.182183    -3.160289
O     6.193853     4.152215    -3.108058
H     6.403204     3.572219    -2.359202
H    -2.576719    -1.519237     7.593460
O    -2.065020    -0.726293     7.809473
H    -2.688364    -0.097722     8.183960
H    -9.029043     7.936433    -4.145963
O    -8.967096     7.349095    -4.900710
H    -8.010245     7.184498    -5.036771
H     3.528226    -8.976798     1.120662
O     2.854532    -8.343366     1.372285
H     3.329260    -7.536710     1.645877
H     3.588592     8.177308     1.817722
O     2.797712     7.614718     1.932466
H     2.352688     7.853002     2.758476
N    -3.581677    -7.519731     3.324057
H    -4.209549    -6.925602     2.861778
H    -3.356651    -7.053321     4.134955
