45

H    -0.089695    -1.296555     3.054428
O     0.388578    -0.599462     2.574788
H    -0.077199     0.221444     2.818228
H    -0.279270    -3.602923     3.662387
O    -0.664779    -2.804664     4.061234
H    -0.420043    -2.866653     5.014367
H     2.012218    -1.803578     2.939365
O     2.101597    -2.761313     2.806221
H     1.489353    -2.947735     2.064075
H    -2.465064     0.235547     3.315622
O    -2.718790    -0.589148     3.791900
H    -1.959187    -0.648983     4.409289
H    -0.877633     0.580415     6.008102
O    -0.600952     0.038211     5.243039
H     0.195649    -0.468024     5.541113
H     0.699338    -5.134596     1.874659
O     0.189159    -5.200420     2.708356
H     0.291537    -6.136860     2.960451
H     1.947158    -3.627308     4.411788
O     2.059852    -4.112302     5.256849
H     2.748944    -3.584142     5.723178
H     4.579731    -2.370644     5.580085
O     4.270610    -2.882889     6.367616
H     4.638950    -3.774668     6.210859
H     2.380981    -5.716307     4.833553
O     2.778377    -6.578180     4.553703
H     2.056772    -7.168520     4.314647
H     2.142508    -0.721214     5.217196
O     1.622630    -1.167102     5.913777
H     1.770098    -0.671676     6.733930
H    -2.274632    -3.210816     4.357027
O    -3.130738    -3.665457     4.560625
H    -3.169623    -4.325951     3.847009
H    -3.518398    -3.617157     7.766609
O    -3.638382    -2.936953     7.102929
H    -3.453456    -3.366188     6.233396
H     0.627157     0.471114     8.946052
O     0.573035    -0.312693     8.386481
H    -0.388233    -0.447483     8.266992
H    -2.622834    -1.500139     7.535916
O    -2.145494    -0.703670     7.846625
H    -2.820199    -0.136385     8.237711
N    -0.204672    -3.399744     6.677456
H     0.661561    -3.730097     6.359316
H     0.038948    -2.620087     7.188407
