24
Coordinates from ORCA-job grain_mol_opt.QMRegion
  H   2.31238057451470     -6.57381936286349     -3.93527112683118
  O   1.97207938171724     -6.23603993838783     -3.09623844309773
  H   2.37241833396219     -6.84007571938024     -2.43071317875777
  H   3.68843834486562     -5.07181134377638     -5.24655912223837
  O   4.45834216405361     -4.72646535085414     -4.75657548323387
  H   4.83613160678680     -5.42979994521534     -4.19768593953644
  H   2.21887293169758     -4.43982264513742     -6.75242893557541
  O   2.07094686834337     -4.95772791585559     -5.94479464319479
  H   1.81826668867454     -4.25772875014554     -5.27975109166072
  H   -0.88950199406925     -5.90297794486758     -5.88833865714041
  O   -0.18058866984462     -6.48338640192550     -5.57862326300567
  H   0.63925081024211     -5.97267317952498     -5.73096812781256
  H   -0.03271322179580     -8.13178931755778     -5.12521623808167
  O   0.13738823358590     -9.10016948581651     -5.01847002254223
  H   0.61178922967976     -9.28043581663725     -5.84964208828873
  H   2.23894953047925    -10.76061263035646     -3.53946771090600
  O   2.10019947812477     -9.82006576745454     -3.42398662678194
  H   1.29542527968938     -9.55040709515274     -3.95546435116570
  H   4.23194479548971     -7.54515970530971     -4.33681029894907
  O   3.46776872515831     -7.88443065775210     -4.84059886233628
  H   3.17825719268389     -8.66859837159587     -4.32896848795720
  O   1.97554227719207     -8.73779442104439     -7.11412522072245
  H   2.64703701759620     -8.35088331352232     -6.52270195839406
  H   1.58334047503467     -7.97425783209278     -7.55046780547627
