42

H     4.600231    -3.217880    -2.510678
O     3.738869    -2.953541    -2.895319
H     3.666384    -3.562755    -3.651343
H     7.824993    -1.621029    -4.100227
O     7.566927    -1.336922    -3.186229
H     7.073307    -0.486356    -3.328038
H     3.650493    -5.105525    -5.373032
O     4.424986    -4.728172    -4.904087
H     4.769702    -5.419144    -4.293700
H     4.818706    -6.295545    -2.258259
O     5.122858    -6.587591    -3.151565
H     5.996251    -6.998031    -3.016859
H     9.615691    -5.685282    -2.216648
O     9.202317    -6.076327    -1.439818
H     8.609113    -6.763863    -1.794082
H     6.834296    -4.241145    -0.876564
O     7.358489    -4.534429    -0.100460
H     8.106387    -5.020492    -0.506216
H     5.153292    -1.995085    -5.664852
O     5.518719    -2.748486    -6.197307
H     5.225558    -3.560946    -5.708121
H     8.077925    -1.215991    -6.122495
O     8.156966    -2.089652    -5.675478
H     7.277289    -2.488585    -5.865251
H     6.714071    -2.771330    -2.711404
O     6.291318    -3.614046    -2.423708
H     6.602362    -4.262317    -3.086776
H     6.692498    -8.383637    -1.575638
O     7.322067    -8.056725    -2.278685
H     7.572841    -8.844805    -2.768273
H     9.497938    -2.159666    -0.899392
O     9.835951    -1.921234    -1.781458
H     9.049453    -1.549908    -2.236080
H     9.969328    -3.180637    -3.064920
O     9.916416    -3.766324    -3.857155
H     9.771485    -3.155841    -4.592893
H     4.053144    -7.504784    -4.242812
O     3.342539    -7.746495    -4.870404
H     2.986594    -8.556490    -4.475983
N     7.628192    -5.178061    -4.229638
H     7.460803    -5.172659    -5.175721
H     8.480280    -4.691867    -4.108589
