603

H     0.195741     3.034971    -0.666413
O     0.718143     2.367220    -1.160731
H     1.657325     2.496837    -0.888140
H    -0.073320    -1.308653     3.158156
O     0.316800    -0.607503     2.613641
H    -0.160689     0.205442     2.849015
H    -2.403228     2.410037    -0.523027
O    -2.192942     1.939495     0.300801
H    -2.205494     0.991778     0.075107
H    -4.663117     0.540675     2.195342
O    -4.980417    -0.392600     2.206135
H    -4.473962    -0.869312     1.540262
H     0.063283    -0.307276     0.959420
O    -0.136416    -0.069098     0.033356
H     0.203822     0.827360    -0.086592
H    -0.148390    -3.579757     3.782198
O    -0.428186    -2.750595     4.203946
H     0.218435    -2.579948     4.905309
H    -4.889647     2.524791     1.345833
O    -4.249458     2.115777     1.959602
H    -3.406657     2.099395     1.446581
H    -3.260363     3.895335    -2.196501
O    -2.520641     3.301852    -1.967481
H    -2.160139     3.016892    -2.827495
H    -0.122184    -3.803313     0.507033
O     0.217047    -2.985829     0.925442
H    -0.570453    -2.500849     1.238995
H    -2.375399    -1.542061     2.478341
O    -2.187603    -2.007093     1.636589
H    -2.446004    -1.418885     0.908026
H     2.071583    -1.437280    -1.116470
O     2.304300    -1.691076    -0.199583
H     1.516037    -2.120152     0.184425
H    -1.391021     1.823398     1.924152
O    -1.484939     1.424020     2.799093
H    -1.469281     2.134924     3.465672
H     0.208292    -2.698415    -1.565523
O    -0.548173    -2.087579    -1.618320
H    -0.368724    -1.361908    -0.983543
H    -3.435287    -2.926314    -0.383416
O    -2.718347    -3.417071    -0.806132
H    -2.008614    -2.785613    -1.023682
H     2.773022     0.130471     2.939653
O     2.872708    -0.053588     3.901034
H     2.963822     0.838798     4.307007
H    -3.571170     6.344639    -0.502028
O    -3.361354     7.013744    -1.211019
H    -3.128168     7.850955    -0.749259
H     3.900085     0.589392     1.191650
O     2.949918     0.405821     1.308370
H     2.713406    -0.345825     0.727819
H    -5.786177     0.839878    -1.589428
O    -4.876102     1.168876    -1.465438
H    -4.986570     1.995687    -0.951703
H    -1.217898     5.395225     2.224356
O    -1.844893     4.648983     2.108336
H    -1.918853     4.228444     2.970256
H     3.488615     2.769250     0.433907
O     3.238817     2.726129    -0.504789
H     3.573331     1.884962    -0.856677
H     1.492630    -4.690061    -2.250170
O     1.556352    -3.913359    -1.676186
H     2.350409    -3.450950    -2.027037
H    -0.925284    -0.080468    -2.538215
O    -0.293852     0.574058    -2.863291
H    -0.031801     1.155522    -2.126098
H     1.702271    -4.681098    -0.178941
O     1.810376    -5.318949     0.562845
H     1.347929    -6.130363     0.266078
H    -1.227141    -3.261045    -2.874699
O    -1.054446    -3.943272    -3.536829
H    -0.925990    -4.790758    -3.069334
H    -2.782589     3.302120     4.720087
O    -1.801622     3.299550     4.684519
H    -1.507169     2.897560     5.520089
H     0.957152     5.033085     4.089639
O     0.010685     5.263056     4.144472
H    -0.459132     4.458462     4.401353
H    -1.727823    -4.649996    -0.368160
O    -0.961791    -5.190220    -0.084721
H    -1.307788    -5.878149     0.493204
H    -3.911301     5.826121    -2.575621
O    -4.283054     5.003847    -2.912163
H    -4.121339     4.965184    -3.879119
H    -2.426895    -3.692475     1.941654
O    -2.444086    -4.597303     2.315958
H    -1.503872    -4.834467     2.455488
H    -4.696875    -2.979414    -2.890039
O    -3.844902    -3.210246    -3.298092
H    -3.511877    -4.004036    -2.834424
H     0.339592     1.373525     4.624981
O     0.843531     2.134840     4.291085
H     0.893497     2.792866     4.998791
H    -4.652969    -5.170687    -1.565685
O    -5.354755    -4.818753    -0.990874
H    -5.140344    -5.174241    -0.107401
H     2.327790    -6.471516    -4.042332
O     1.990928    -6.144432    -3.188081
H     2.426886    -6.718453    -2.525984
H     0.464502    -3.370969    -4.002717
O     1.266387    -3.002483    -4.425943
H     0.946061    -2.630055    -5.273723
H     1.966899    -1.752276     2.985767
O     2.122407    -2.682830     2.767170
H     1.436250    -2.896071     2.100418
H    -3.018261    -1.806455    -3.201209
O    -2.597883    -0.919090    -3.135336
H    -3.254366    -0.274645    -3.454175
H    -3.196537     4.976350     1.090957
O    -3.980351     5.350909     0.640427
H    -4.390329     5.907717     1.351208
H     0.873665     2.253596     2.601222
O     0.972402     2.249176     1.629805
H     1.700966     1.628242     1.464138
H     0.182755     5.663416    -0.741075
O     0.701435     6.324780    -1.252249
H     0.844474     7.126762    -0.698201
H     0.338002     7.035323     2.608783
O    -0.027576     6.650529     1.794956
H     0.639600     5.985259     1.528530
H    -2.479505     0.210523     3.351736
O    -2.700277    -0.604484     3.855591
H    -1.939030    -0.644018     4.476584
H    -0.891510     0.547151     6.034876
O    -0.618188     0.028696     5.259529
H     0.096822    -0.573903     5.544534
H     0.714902    -4.993759     1.980906
O     0.173202    -5.105145     2.785526
H     0.319614    -6.025831     3.056489
H    -2.111621    -8.088854     0.447214
O    -1.789037    -7.601553     1.232731
H    -2.575170    -7.291992     1.690179
H    -0.390377     6.868473    -2.309621
O    -1.142686     7.276463    -2.809860
H    -1.927182     7.155963    -2.240281
H    -1.120202     4.309367     0.589913
O    -0.749179     4.372269    -0.306880
H    -1.455444     4.130089    -0.938669
H    -4.411559     2.739530     3.523350
O    -4.410984     2.909037     4.487987
H    -4.491536     2.025278     4.896155
H     2.029721    -3.583477     4.245507
O     1.967172    -4.056999     5.098104
H     2.474600    -3.520796     5.728916
H     4.689807    -3.188533     0.838106
O     4.528121    -3.111969    -0.128113
H     3.668757    -2.635309    -0.209993
H    -2.725395    -0.747495    -1.342118
O    -3.052521    -0.479103    -0.467086
H    -3.853737     0.045797    -0.672283
H    -1.622231    -0.754023    -4.622616
O    -1.117369    -0.535924    -5.427104
H    -0.407340     0.060698    -5.142282
H     1.790922    -1.706039    -3.373472
O     1.882507    -0.960052    -2.749274
H     1.104813    -0.383349    -2.879390
H     3.666541    -3.119464     2.550755
O     4.625733    -3.347244     2.476261
H     4.681813    -4.307453     2.601816
H     3.433534    -6.119682     3.119589
O     3.787934    -5.917455     2.219191
H     3.049574    -5.571610     1.677643
H    -3.351773     1.614760    -4.165157
O    -4.198674     1.146678    -3.975156
H    -4.413204     1.287682    -3.017188
H    -5.088025     4.145763     0.087227
O    -5.526290     3.279982    -0.020389
H    -6.457379     3.397938    -0.299301
H     6.731466    -1.170763    -1.363266
O     5.959486    -1.023075    -0.810542
H     5.541880    -1.891609    -0.613878
H     4.592025    -3.158539    -2.471424
O     3.723404    -2.987913    -2.886145
H     3.726945    -3.605516    -3.643256
H     4.440158    -2.294346     5.622122
O     4.098385    -2.761589     6.414804
H     4.434817    -3.665940     6.331636
H    -0.760029     6.332925     5.092448
O    -1.357576     6.907123     5.631340
H    -1.371457     7.785091     5.190793
H     4.694728    -0.127294    -1.463409
O     3.926218     0.414270    -1.724649
H     3.234342    -0.186741    -2.054919
H    -0.757407     4.528509    -4.025405
O    -1.542596     5.070181    -4.227597
H    -1.384662     5.938261    -3.807891
H     0.650666     3.210669    -2.646998
O     0.654437     3.587556    -3.555337
H     0.704765     2.824787    -4.141387
H    -5.378990    -5.199407     1.800698
O    -4.682115    -5.792584     1.443419
H    -3.841621    -5.376494     1.714055
H     7.876161    -1.674529    -4.036388
O     7.618808    -1.362892    -3.136059
H     7.130996    -0.519200    -3.290948
H     3.698242    -5.059583    -5.292916
O     4.460673    -4.685845    -4.812141
H     4.846657    -5.397113    -4.267726
H    -3.782000     0.010034     4.946627
O    -4.382948     0.472610     5.580214
H    -5.041776    -0.186797     5.872185
H     3.467344    -5.935963    -0.522979
O     4.339305    -5.687515    -0.841851
H     4.414974    -4.725318    -0.696838
H     4.993652    -0.322912    -4.158532
O     4.458584    -1.034453    -4.548572
H     4.134140    -1.618999    -3.831029
H    -1.182057     1.578130    -3.925056
O    -1.834145     2.197928    -4.309683
H    -1.476953     2.531200    -5.155774
H     4.886264    -6.311923    -2.320897
O     5.218352    -6.635581    -3.187317
H     6.037204    -7.115675    -3.002175
H     8.739616    -5.076878    -2.926625
O     8.049279    -5.496194    -2.368217
H     8.085038    -6.453328    -2.471558
H     2.331006     4.724616     0.462554
O     1.753177     4.703532     1.234836
H     1.396716     3.783059     1.310977
H    -4.411227    -2.642507     4.240528
O    -5.305838    -2.303703     4.039387
H    -5.170374    -1.521594     3.464960
H    -5.844524    -3.201198     1.327431
O    -6.306469    -3.759304     1.995381
H    -6.117003    -3.325175     2.846414
H     1.686837     3.463736     6.873306
O     1.062360     3.978579     6.340614
H     0.280183     4.130848     6.913377
H     5.003879    -2.166384     3.615941
O     5.024086    -1.449130     4.281126
H     4.211573    -0.893416     4.125881
H     2.398493    -5.578112     4.836665
O     2.779155    -6.461253     4.575122
H     2.034579    -7.043386     4.401155
H     2.251598    -4.502918    -6.790871
O     2.083442    -4.992552    -5.975771
H     1.819080    -4.302460    -5.319109
H     6.440414    -4.093830    -0.507998
O     7.194421    -4.496803    -0.045957
H     7.701539    -4.917959    -0.767800
H    -1.725297     4.481563     7.715845
O    -0.826565     4.579697     8.101176
H    -0.645965     5.539021     8.126018
H    -5.124910     5.710041    -5.577837
O    -4.525286     4.943158    -5.596443
H    -3.765232     5.151403    -6.162987
H     3.271733    -2.511339    -8.435964
O     3.185429    -3.044910    -7.635080
H     4.062556    -3.020183    -7.207224
H    -0.669334     8.836027    -2.264539
O    -0.559348     9.663943    -1.747441
H     0.198236     9.493550    -1.165070
H     2.069540    -0.914643     5.216011
O     1.497666    -1.441704     5.803318
H     1.592592    -1.097729     6.700932
H     5.198317    -2.009466    -5.693655
O     5.544582    -2.774818    -6.216980
H     5.272437    -3.565633    -5.699939
H     5.702604    -5.212717     4.681096
O     5.181165    -5.129377     5.508466
H     4.460381    -5.762197     5.422973
H    -3.971446     1.135754     7.020561
O    -3.779148     1.610927     7.864678
H    -4.655301     1.995142     8.126921
H    -1.883166     9.655973    -0.768400
O    -2.678830     9.433284    -0.226834
H    -3.419030     9.984386    -0.552602
H    -5.960669     4.683839    -2.917490
O    -6.869254     4.570457    -3.263468
H    -6.778962     3.868497    -3.941793
H     0.097336    -7.060778    -1.144329
O     0.562923    -7.497145    -0.397786
H    -0.115189    -7.693534     0.251707
H    -7.648314     3.785616    -1.955077
O    -7.907635     3.200289    -1.213579
H    -7.764238     2.290922    -1.551988
H     3.978713    -0.894759     6.988851
O     3.985981     0.069408     6.981015
H     4.797359     0.361054     6.548803
H     2.247068     5.803602    -1.167540
O     3.182317     5.509443    -1.053539
H     3.359155     4.972058    -1.848389
H     6.554235    -5.921613     0.665185
O     6.186979    -6.659068     1.198312
H     5.282469    -6.383149     1.426613
H    -3.869232     4.718653     7.798139
O    -3.303721     4.257561     7.137078
H    -3.494576     3.313649     7.247730
H     5.767625    -7.937786     0.129694
O     5.479699    -8.624630    -0.508120
H     4.649865    -8.299415    -0.901185
H    -0.554804     2.034619     7.704160
O    -1.189050     1.969859     6.969939
H    -2.056737     1.826763     7.367596
H    -6.384037    -0.127976     1.076822
O    -6.707240    -0.207548     0.164460
H    -7.624524    -0.483074     0.184451
H    -5.372584    -3.066865    -0.577753
O    -5.121216    -2.364301     0.048060
H    -5.692063    -1.592187    -0.139091
H     4.308420     5.584754     0.330112
O     4.642927     5.683136     1.235342
H     3.949287     6.193973     1.688649
H    -9.048329    -1.749068    -2.237501
O    -8.500059    -1.547328    -1.451828
H    -8.625214    -2.285223    -0.814971
H    -5.537339     3.473830    -5.510833
O    -6.054398     2.765859    -5.092045
H    -5.387071     2.178127    -4.681389
H     3.171422    -0.875819    -5.652066
O     2.314965    -0.996659    -6.116753
H     2.401401    -1.844804    -6.591585
H     8.105371    -1.331635    -6.032011
O     8.115085    -2.196198    -5.576598
H     7.259093    -2.596809    -5.826698
H     7.608674     1.008474    -6.309666
O     7.420192     0.160323    -6.723479
H     6.438874     0.109438    -6.758696
H    -7.859682    -3.699006     0.942080
O    -8.538565    -3.591661     0.258195
H    -8.440495    -4.350703    -0.344072
H    -2.335528     8.712193     1.370485
O    -2.241429     8.088442     2.108588
H    -1.462718     7.537601     1.903243
H    -4.452989     6.438526     3.508958
O    -4.619058     6.867482     2.653265
H    -3.845530     7.442820     2.514599
H     3.388642     3.456520    -3.569497
O     3.234725     4.425332    -3.474512
H     2.269968     4.490636    -3.581471
H    -6.121814    -1.605594    -3.429146
O    -6.203115    -2.185078    -2.645272
H    -6.987280    -1.879819    -2.135868
H     6.468146     1.053678     4.741461
O     6.074191     1.590906     5.445608
H     6.260426     2.510280     5.155396
H     1.348930     1.732660    -5.814255
O     1.155059     1.135358    -5.060803
H     1.520473     0.273460    -5.331750
H    -2.484690     2.951744     10.498144
O    -2.272120     2.044536     10.223784
H    -2.870190     1.845191     9.491652
H     7.627629    -0.491049     3.082119
O     6.877091     0.083499     3.252448
H     6.186014    -0.517931     3.632137
H    -5.655318    -8.056770    -0.695741
O    -4.919690    -8.125372    -0.050257
H    -4.923709    -7.308690     0.472635
H    -5.186454    -0.115628    -4.701781
O    -5.802966    -0.828003    -4.941258
H    -6.641940    -0.387749    -5.138508
H     1.877388    -0.185410    -7.509523
O     1.673646     0.286758    -8.352713
H     2.250502    -0.116519    -9.006879
H     4.858820    -1.375010    -9.303308
O     3.932952    -1.147302    -9.584196
H     3.912119    -1.263411    -10.533437
H     7.567476    -2.565261     4.196271
O     7.713130    -2.600131     3.236568
H     7.220427    -3.391285     2.964451
H     6.726299    -5.888646     2.678213
O     6.787846    -5.214203     3.380074
H     7.664378    -5.298493     3.796770
H    -1.827879     8.945131     3.517463
O    -1.581718     9.247774     4.417784
H    -2.431193     9.381279     4.870920
H    -7.402022     1.568945    -5.232857
O    -7.975140     0.823783    -4.987549
H    -8.877658     1.220832    -4.910688
H     6.913380    -1.063448    -8.405778
O     6.332008    -1.784984    -8.669433
H     6.105757    -2.235951    -7.837653
H    -1.701663     6.250509    -7.004587
O    -2.096799     5.424090    -6.729803
H    -1.841478     5.293209    -5.767841
H     0.003400     3.303813     9.035193
O     0.201507     2.383913     9.288956
H    -0.595838     2.118427     9.796185
H     6.751946    -2.766888    -2.707868
O     6.222689    -3.512221    -2.367222
H     6.691981    -4.322146    -2.615146
H    -4.084008    -3.068933    -4.934322
O    -4.239554    -2.955311    -5.898804
H    -4.787743    -2.162885    -5.953590
H     1.983469     2.179014     8.473949
O     2.646175     2.292943     7.783064
H     3.069389     1.423393     7.666150
H    -6.907994    -5.204262    -1.385194
O    -7.823769    -5.474088    -1.629802
H    -7.958746    -5.071209    -2.512341
H    -3.830999     5.251087     5.713112
O    -3.800563     6.019187     5.121763
H    -2.866726     6.314989     5.215420
H    -7.891290     0.084936    -1.947788
O    -7.404866     0.811067    -2.361128
H    -7.632811     0.798810    -3.314340
H     5.833832     0.138390     0.413625
O     5.611455     0.858824     1.035550
H     6.123053     0.663781     1.847634
H    -6.215421     3.299804     7.414595
O    -6.085802     2.781244     8.242727
H    -6.684871     2.018968     8.154757
H     2.281580    -8.067738    -0.845911
O     2.957549    -8.053505    -1.543100
H     2.732798    -8.767263    -2.156626
H    -2.751724    -3.954652    -6.190220
O    -1.997444    -4.520494    -5.959750
H    -1.720248    -4.229571    -5.062657
H    -5.646038     3.752562     5.328732
O    -6.296455     4.148550     5.945095
H    -6.128988     5.091995     5.937272
H    -1.018811    -7.108939    -3.161696
O    -0.546726    -6.439130    -2.633252
H     0.360470    -6.368548    -3.014785
H     4.444067     2.018654     5.134440
O     3.501852     2.256494     5.015801
H     3.118897     2.272074     5.898267
H     4.107460     4.657699     6.309894
O     4.186891     5.388669     5.692625
H     3.618572     5.148681     4.922041
H     2.761695     3.619177     3.931780
O     2.582140     4.559165     3.767650
H     2.462203     4.659379     2.801400
H     9.388120     0.225010    -1.073242
O     8.582248     0.386137    -0.578890
H     8.408074    -0.433348    -0.086309
H    -2.098521     5.310934     10.667414
O    -2.819824     4.681547     10.898950
H    -3.036838     4.857397     11.814717
H     7.972428    -2.998867     0.323435
O     8.393014    -2.152058     0.578895
H     8.328317    -2.148053     1.541286
H     5.366894     3.670191     3.531094
O     6.023234     3.934733     4.197573
H     5.610832     4.652506     4.699928
H    -4.207155     5.012025     9.803672
O    -4.841821     5.162319     9.082843
H    -5.452158     4.412465     9.080900
H    -7.015233    -3.478687    -3.472489
O    -7.636029    -4.089970    -3.921095
H    -7.115303    -4.531198    -4.624172
H     0.029061     6.121686     10.786020
O    -0.836288     6.452083     10.540085
H    -0.722031     6.883616     9.674021
H     2.578549     1.505060    -4.098051
O     3.456835     1.858467    -3.860586
H     3.778877     1.343759    -3.090619
H    -6.968057    -0.229743     7.236528
O    -7.477439     0.547914     7.517831
H    -8.101822     0.730616     6.814634
H    -2.737502    -9.872257    -0.828606
O    -2.675736    -8.930378    -0.987622
H    -3.581679    -8.565214    -0.745467
H    -10.082940     3.073855    -4.873447
O    -10.197949     2.155893    -4.593997
H    -10.413563     2.237038    -3.644147
H    -2.063377    -3.027905     4.621964
O    -2.937986    -3.468690     4.692026
H    -2.931892    -4.086057     3.935382
H    -0.170987    -7.982347     2.485777
O     0.655608    -7.771309     2.932970
H     1.373645    -8.065826     2.345133
H     6.711977    -2.372065     6.390449
O     7.161373    -3.081221     5.925923
H     6.531943    -3.816514     5.887729
H    -5.266303    -2.012087     6.956630
O    -5.943765    -1.514301     6.473965
H    -5.928180    -1.890529     5.564470
H     0.820882     3.045145    -7.104097
O     1.737976     2.713577    -7.160812
H     1.724070     1.967452    -7.788263
H    -3.957993     8.750300     6.694506
O    -3.965965     8.748275     5.737136
H    -4.083982     7.819450     5.470344
H    -1.980456     10.201458    -3.110949
O    -2.849036     10.280539    -3.528653
H    -3.291022     10.972303    -3.022075
H     9.415431    -4.052945     4.037366
O     9.137037    -4.731914     4.659635
H     8.708082    -4.260603     5.384787
H    -0.739763    -5.988566    -5.837661
O    -0.035479    -6.554707    -5.505288
H     0.799402    -6.092293    -5.723590
H     1.815812     8.278550     0.680349
O     1.508901     8.597797    -0.196209
H     2.321434     8.643302    -0.728982
H     3.483753     2.944353    -6.654862
O     4.311753     2.653026    -6.247296
H     4.068033     2.379035    -5.338141
H     3.721095     7.133350    -1.218429
O     3.927353     8.069100    -1.429901
H     4.292640     8.015919    -2.324922
H     4.381464     0.008771    -7.908879
O     4.759078     0.154005    -7.039531
H     4.577182     1.085665    -6.794733
H     6.023903     1.943076    -0.472029
O     6.587786     2.137053    -1.234632
H     7.413299     1.658489    -1.042168
H     6.686447    -8.420111    -1.615101
O     7.321077    -8.208118    -2.352402
H     7.688242    -9.041706    -2.641592
H    -5.306516    -5.784668    -5.398363
O    -5.924778    -5.112740    -5.711218
H    -5.374466    -4.344108    -5.948520
H     0.679290     7.170551     7.616125
O    -0.222024     7.196431     7.976448
H    -0.778195     7.211737     7.159336
H    -8.904084    -2.835178    -4.085128
O    -9.424507    -2.026706    -3.916864
H    -9.139885    -1.362184    -4.547970
H    -2.410976    -5.984698    -2.138191
O    -3.289734    -5.698952    -2.405509
H    -3.477551    -6.073170    -3.291347
H    -2.991499    -5.893799    -5.403263
O    -3.590371    -6.504458    -4.930843
H    -3.107524    -7.324495    -4.765572
H    -1.407216     3.736621    -6.969370
O    -0.867439     2.980624    -6.698285
H    -1.102599     2.196012    -7.249713
H    -0.218897     0.429859    -8.207010
O    -1.114866     0.663629    -7.922001
H    -1.287982     0.138881    -7.124414
H    -10.435355     4.048083    -2.708527
O    -10.501752     3.270090    -2.139541
H    -9.671035     3.242487    -1.632995
H     4.572919     4.087342     1.727590
O     4.366713     3.165345     2.005242
H     5.083369     2.591297     1.722307
H     6.474703     1.412462    -4.217704
O     6.173281     0.787151    -3.523951
H     6.204711     1.281990    -2.679780
H     9.629885    -2.212172    -0.935147
O     9.905080    -1.996879    -1.835151
H     9.103899    -1.658160    -2.277117
H     9.964634    -3.304581    -3.105785
O     9.697386    -3.956205    -3.781068
H     9.302354    -3.448206    -4.500332
H    -7.696014    -8.577073    -1.656997
O    -6.959198    -7.981497    -1.785502
H    -7.337991    -7.069065    -1.774063
H     4.145407     6.093456    -3.811869
O     4.806612     6.794327    -3.725935
H     5.643344     6.340785    -3.590809
H     0.095279    -8.161403    -5.215606
O     0.119968    -9.144422    -5.084731
H     0.270064    -9.507205    -5.957773
H    -2.331444    -8.669514    -2.713484
O    -2.099545    -8.404412    -3.623132
H    -1.452597    -9.021575    -3.983595
H     2.185970    -10.807200    -3.501178
O     2.138657    -9.852755    -3.475565
H     1.352404    -9.582241    -4.000617
H     6.822528     3.345502    -4.571258
O     6.880321     2.667738    -5.272638
H     6.086306     2.801190    -5.812465
H    -3.555132    -3.729838     7.730368
O    -3.671528    -2.941887     7.200987
H    -3.420715    -3.179732     6.282230
H    -0.647119    -3.352317    -6.718680
O    -0.017750    -2.620170    -6.726150
H    -0.499775    -1.845460    -6.383299
H     0.647781     0.456993     8.760794
O     0.655106    -0.257429     8.119802
H    -0.266968    -0.546985     8.032980
H    -5.917409     7.305340    -4.192217
O    -6.390106     6.693236    -4.788004
H    -6.676441     5.944704    -4.208639
H    -4.136846     8.862054    -3.369882
O    -4.911620     8.383630    -3.011582
H    -4.511829     7.799792    -2.326847
H    -9.728554     5.794735    -4.622706
O    -10.261061     4.991316    -4.453302
H    -11.141550     5.187623    -4.775367
H     2.764899     6.516677     6.151934
O     1.804880     6.611576     6.252182
H     1.462341     5.698151     6.148001
H     4.790002     8.556990     0.095781
O     5.109272     8.556457     1.016205
H     5.517578     7.692483     1.144526
H     4.140748    -7.413609    -4.347060
O     3.382161    -7.698671    -4.888546
H     3.103501    -8.540386    -4.512913
H     0.369114     8.660753     4.249772
O     1.046667     8.016037     4.021456
H     1.274400     7.523583     4.835818
H     5.222730     4.204629    -3.151377
O     6.184275     4.173923    -3.100650
H     6.394569     3.592952    -2.352908
H    -2.571385    -1.550874     7.583530
O    -2.061669    -0.757245     7.803476
H    -2.687425    -0.132139     8.179608
H    -9.052748     7.934842    -4.121176
O    -8.979010     7.351979    -4.878121
H    -8.020367     7.196360    -5.007295
H     3.536810    -8.973691     1.085301
O     2.859682    -8.342985     1.335621
H     3.333726    -7.537410     1.615910
H     3.574708     8.177681     1.842361
O     2.787185     7.610536     1.957679
H     2.340048     7.847895     2.782724
N    -4.965728     10.585807    -1.355556
H    -5.704955     10.723928    -0.755929
H    -5.199999     9.800986    -1.903057
