33
Coordinates from ORCA-job grain_mol_opt.QMRegion
  H   -4.74572256096170     -3.00340539895938     -2.94767436326404
  O   -3.89702539477779     -3.22985720655611     -3.37548101320828
  H   -3.56810010885546     -4.02276434162833     -2.90138999843811
  H   0.43537667331170     -3.36572282481560     -4.07307658068352
  O   1.27697461579666     -3.00905929761417     -4.43027594327182
  H   1.01520894836704     -2.59197758321690     -5.27081375859660
  H   -3.03873890483953     -1.81723991731574     -3.18781243708779
  O   -2.60314683939191     -0.92843428731698     -3.14372720760748
  H   -3.27087448102880     -0.28104443423025     -3.42946954897083
  H   -1.52253379804402     -0.75954174098748     -4.59151386262556
  O   -0.95241063274320     -0.51284631756971     -5.34868324590476
  H   -0.28608169222678      0.09324672734569     -4.97364365420974
  H   -5.26232332963536     -0.00376024709243     -4.60353791351366
  O   -5.89020034841527     -0.70205718439213     -4.86647758720563
  H   -6.73813730392218     -0.23628461536882     -5.00558954381280
  H   -4.21662099024483     -3.08558901657835     -5.16041036213583
  O   -4.55520656431574     -2.80978123009245     -6.03820834806563
  H   -5.11772788522165     -2.04319904457562     -5.81801889328788
  H   -2.04819443462071     -3.99663103849442     -6.59991258824548
  O   -1.88174644036820     -4.69866110942855     -5.95283900564562
  H   -1.63003093788992     -4.26704576267991     -5.11335598909965
  H   -5.31728963283386     -5.79216022050759     -5.38472647611968
  O   -6.01791451839808     -5.24563310164035     -5.77481354119994
  H   -5.55033745601206     -4.44513221082353     -6.07101170146227
  H   -0.22256372902179      0.43594322420289     -8.13525353601299
  O   -1.14943046837741      0.58139351443039     -7.86833813736561
  H   -1.19146876729591      0.23929411509789     -6.95216885447106
  H   -0.29798439680174     -2.87978209395326     -7.45638807496873
  O   0.31185173566969     -2.31436210470597     -6.97585787983176
  H   -0.26358776915936     -1.68768247365854     -6.50156819358228
  O   -2.52472686252906     -2.58481573113260     -7.82436314954274
  H   -2.27152843810312     -1.67601391768368     -8.02946070171787
  H   -3.32260883377030     -2.51142174222066     -7.25394235334173
