21

H    -9.077175    -1.748330    -2.226762
O    -8.530653    -1.561017    -1.446911
H    -8.627377    -2.291927    -0.788469
H    -7.868520    -3.675761     1.027137
O    -8.581354    -3.580119     0.367528
H    -8.459000    -4.341199    -0.231323
H    -6.116546    -1.597434    -3.527991
O    -6.224434    -2.195001    -2.757807
H    -6.990378    -1.872961    -2.224181
H    -6.847614    -5.206567    -1.401473
O    -7.781944    -5.465323    -1.601112
H    -7.893375    -5.132239    -2.514123
H    -7.031572    -3.481456    -3.578142
O    -7.626571    -4.109328    -4.061351
H    -7.046972    -4.541170    -4.732706
H    -8.661114    -2.471755    -4.459506
O    -9.242364    -1.745846    -4.171757
H    -8.973426    -0.971619    -4.681790
N    -10.589352    -4.591906    -3.941517
H    -9.634625    -4.635666    -4.084726
H    -10.787613    -3.671176    -4.145064
