21
Coordinates from ORCA-job grain_mol_opt.QMRegion
  H   7.82269531708728     -1.71669799119524     -4.14805143477369
  O   7.62102696196394     -1.38158144195210     -3.24174931657707
  H   7.09178482191462     -0.55071215299901     -3.38031137213511
  H   9.45161187455512      0.59838753074604     -0.71123316705002
  O   8.53592422766837      0.57827165066476     -0.37242236617132
  H   8.40682211523876     -0.31277251324805     -0.01527825905518
  H   7.93669816512937     -3.10793505714788      0.32384159334582
  O   8.38956646920016     -2.26584012327578      0.55475593132175
  H   8.35050001648494     -2.27393624605895      1.52328269862441
  H   5.87753317085526      1.92187406976251     -0.64475777088626
  O   6.53055966925989      2.11339345799148     -1.33043124095611
  H   7.32803684259971      1.62850569785775     -1.02877473631904
  H   9.61003135578139     -2.28998330047982     -1.00239224327709
  O   9.88270264425213     -2.09878324786699     -1.91731713623060
  H   9.07807698796791     -1.68996382377322     -2.31397106171278
  H   9.90257749953412     -3.47788709226033     -3.24178926122180
  O   9.69973638686803     -4.12281067026816     -3.94549848240664
  H   9.21064993277902     -3.61766130627366     -4.60962790999925
  O   11.10110918158450      0.33220938034675     -1.48252813155383
  H   11.23427037246941      0.79357799259181     -2.31585162424361
  H   10.85554369568873     -0.58394202631738     -1.73771829090162
