603

H     0.198196     3.042218    -0.650524
O     0.720730     2.373115    -1.143000
H     1.660092     2.503308    -0.872828
H    -0.070667    -1.309684     3.166080
O     0.321081    -0.606816     2.624953
H    -0.158009     0.205145     2.860041
H    -2.399581     2.420359    -0.504981
O    -2.188526     1.946085     0.317203
H    -2.204956     0.999290     0.087492
H    -4.659436     0.546709     2.208043
O    -4.974795    -0.387183     2.220663
H    -4.473404    -0.862189     1.549742
H     0.066861    -0.303217     0.969836
O    -0.133240    -0.064035     0.044427
H     0.205561     0.833001    -0.075604
H    -0.147894    -3.581335     3.785525
O    -0.426123    -2.752883     4.209879
H     0.221362    -2.585437     4.911092
H    -4.885760     2.532570     1.364038
O    -4.244552     2.122885     1.977614
H    -3.403530     2.105735     1.461531
H    -3.250383     3.915626    -2.175425
O    -2.514851     3.314446    -1.946336
H    -2.156763     3.031410    -2.807801
H    -0.122177    -3.798514     0.510571
O     0.217922    -2.982497     0.931287
H    -0.569456    -2.497086     1.244490
H    -2.374471    -1.539556     2.486274
O    -2.185308    -2.002480     1.644111
H    -2.445275    -1.413759     0.916250
H     2.072512    -1.430881    -1.109172
O     2.305251    -1.686389    -0.192547
H     1.516717    -2.116037     0.190326
H    -1.390719     1.824158     1.937461
O    -1.479349     1.425630     2.813716
H    -1.461731     2.136281     3.479457
H     0.208114    -2.690265    -1.559856
O    -0.548322    -2.079383    -1.610754
H    -0.368196    -1.354154    -0.975849
H    -3.436250    -2.917437    -0.377545
O    -2.718648    -3.408351    -0.799082
H    -2.009537    -2.776583    -1.017747
H     2.776624     0.127485     2.949432
O     2.876580    -0.057011     3.910902
H     2.968574     0.834658     4.317293
H    -3.525856     6.399266    -0.489061
O    -3.285311     7.066487    -1.182484
H    -3.171655     7.908834    -0.717104
H     3.902848     0.588936     1.201817
O     2.952623     0.406274     1.319525
H     2.714683    -0.343688     0.736987
H    -5.783483     0.854104    -1.576674
O    -4.873025     1.180395    -1.447930
H    -4.984558     2.007695    -0.934364
H    -1.200117     5.375424     2.261812
O    -1.835141     4.641174     2.136900
H    -1.921949     4.217774     2.995979
H     3.493245     2.769538     0.449211
O     3.243829     2.730430    -0.489341
H     3.576180     1.889672    -0.844486
H     1.490182    -4.681095    -2.248850
O     1.555587    -3.906067    -1.672794
H     2.349257    -3.443226    -2.023929
H    -0.925812    -0.068590    -2.528798
O    -0.290366     0.583646    -2.850750
H    -0.030688     1.164933    -2.112864
H     1.701170    -4.676670    -0.177683
O     1.809040    -5.315968     0.563009
H     1.345682    -6.126371     0.264745
H    -1.229182    -3.248567    -2.870340
O    -1.056022    -3.930159    -3.533027
H    -0.928890    -4.778334    -3.066669
H    -2.777562     3.296704     4.737498
O    -1.795852     3.302613     4.705522
H    -1.500837     2.891899     5.536638
H     0.960483     5.032080     4.109800
O     0.014717     5.267125     4.170606
H    -0.456461     4.461357     4.422966
H    -1.728683    -4.642256    -0.365354
O    -0.963029    -5.183563    -0.082658
H    -1.309896    -5.872852     0.493085
H    -3.924351     5.853029    -2.557380
O    -4.271577     5.016130    -2.883879
H    -4.121038     4.984448    -3.853128
H    -2.426560    -3.688896     1.945886
O    -2.444125    -4.593764     2.320122
H    -1.504034    -4.832359     2.457635
H    -4.698292    -2.963970    -2.883631
O    -3.846247    -3.195503    -3.291350
H    -3.514615    -3.990453    -2.829042
H     0.345321     1.369164     4.638175
O     0.847491     2.132830     4.306350
H     0.899957     2.787432     5.016519
H    -4.655191    -5.158899    -1.562840
O    -5.356270    -4.807788    -0.986741
H    -5.141693    -5.165118    -0.104220
H     2.323437    -6.459511    -4.045195
O     1.987617    -6.133979    -3.189963
H     2.423315    -6.709819    -2.529385
H     0.462574    -3.357782    -3.998463
O     1.264793    -2.989465    -4.421264
H     0.944061    -2.614830    -5.268030
H     1.968328    -1.754279     2.991884
O     2.123680    -2.684525     2.772196
H     1.437353    -2.896501     2.104994
H    -3.018940    -1.791089    -3.192814
O    -2.596846    -0.905004    -3.124342
H    -3.252408    -0.257916    -3.441854
H    -3.192253     4.985886     1.123739
O    -3.976599     5.346110     0.664354
H    -4.432416     5.866983     1.370486
H     0.878973     2.252364     2.616209
O     0.978184     2.252061     1.645099
H     1.704582     1.629237     1.476472
H     0.186582     5.669432    -0.720738
O     0.713185     6.329343    -1.225141
H     0.847963     7.132200    -0.671870
H     0.372168     7.038199     2.622637
O     0.011789     6.645297     1.812131
H     0.673535     5.972831     1.549106
H    -2.476107     0.211162     3.364029
O    -2.697165    -0.603557     3.868064
H    -1.934906    -0.646058     4.487133
H    -0.885747     0.540182     6.048657
O    -0.611933     0.026104     5.271031
H     0.102014    -0.579236     5.553515
H     0.714077    -4.992653     1.981777
O     0.173459    -5.104899     2.787050
H     0.318671    -6.026510     3.055548
H    -2.114964    -8.082716     0.443415
O    -1.791859    -7.597275     1.229943
H    -2.577835    -7.287763     1.687717
H    -0.385691     6.879423    -2.287235
O    -1.133322     7.289745    -2.788211
H    -1.920140     7.181426    -2.218116
H    -1.119635     4.311549     0.606865
O    -0.744658     4.378703    -0.287014
H    -1.450241     4.140591    -0.922649
H    -4.406304     2.741738     3.540096
O    -4.402304     2.909538     4.505754
H    -4.485979     2.024886     4.911690
H     2.030974    -3.588046     4.248510
O     1.968318    -4.062408     5.100689
H     2.477242    -3.528127     5.731793
H     4.689969    -3.187976     0.840773
O     4.527955    -3.109240    -0.125092
H     3.668750    -2.631992    -0.205879
H    -2.724781    -0.736590    -1.331404
O    -3.051142    -0.469902    -0.455436
H    -3.851907     0.056734    -0.660276
H    -1.623341    -0.737682    -4.612573
O    -1.116835    -0.520335    -5.416276
H    -0.407891     0.077076    -5.130731
H     1.790531    -1.695035    -3.366447
O     1.883334    -0.950950    -2.740147
H     1.105754    -0.373193    -2.868594
H     3.667421    -3.121763     2.553996
O     4.626543    -3.349791     2.479421
H     4.681827    -4.310469     2.602160
H     3.432612    -6.122686     3.117052
O     3.786945    -5.918433     2.217184
H     3.048412    -5.571818     1.676208
H    -3.350655     1.631794    -4.149127
O    -4.193882     1.158060    -3.957912
H    -4.410914     1.302853    -3.001273
H    -5.084240     4.150003     0.100591
O    -5.525289     3.284285     0.003718
H    -6.455123     3.404917    -0.280204
H     6.731889    -1.167567    -1.357926
O     5.961089    -1.020239    -0.803426
H     5.542420    -1.888786    -0.608931
H     4.591031    -3.151876    -2.468760
O     3.722285    -2.979675    -2.882445
H     3.724665    -3.595491    -3.641029
H     4.443394    -2.302931     5.626672
O     4.101703    -2.770752     6.419087
H     4.436870    -3.675450     6.333989
H    -0.742205     6.369070     5.083501
O    -1.332046     6.968226     5.608251
H    -1.378686     7.813603     5.123934
H     4.695818    -0.122833    -1.454881
O     3.927616     0.420205    -1.713662
H     3.235061    -0.179114    -2.046033
H    -0.750381     4.546927    -4.003645
O    -1.536864     5.084960    -4.207291
H    -1.388406     5.952727    -3.782249
H     0.654286     3.220315    -2.629988
O     0.662414     3.599512    -3.536765
H     0.706493     2.838484    -4.125495
H    -5.379602    -5.193575     1.803672
O    -4.683119    -5.787162     1.446167
H    -3.842434    -5.371470     1.716500
H     7.875230    -1.667107    -4.032217
O     7.618720    -1.356895    -3.131063
H     7.131363    -0.512620    -3.284329
H     3.694173    -5.045853    -5.293582
O     4.457382    -4.674139    -4.812298
H     4.842733    -5.387010    -4.269658
H    -3.777500     0.009632     4.959351
O    -4.376856     0.471600     5.595381
H    -5.036840    -0.187938     5.884941
H     3.464781    -5.931994    -0.525610
O     4.337309    -5.683733    -0.843098
H     4.413293    -4.721737    -0.697152
H     4.993639    -0.312844    -4.150395
O     4.458444    -1.023622    -4.541494
H     4.133239    -1.608971    -3.825008
H    -1.178688     1.592749    -3.911952
O    -1.831020     2.213374    -4.293547
H    -1.475451     2.550426    -5.138710
H     4.882898    -6.305545    -2.324074
O     5.214439    -6.627706    -3.191232
H     6.032942    -7.108869    -3.007423
H     8.736806    -5.072198    -2.929317
O     8.046688    -5.492062    -2.371072
H     8.081375    -6.448997    -2.476617
H     2.337189     4.727659     0.478604
O     1.766518     4.701621     1.256379
H     1.404644     3.782306     1.327608
H    -4.409362    -2.641798     4.248139
O    -5.303648    -2.300967     4.049367
H    -5.167800    -1.518943     3.474734
H    -5.844028    -3.194260     1.334274
O    -6.305206    -3.753612     2.002011
H    -6.116087    -3.320520     2.853444
H     1.696651     3.455620     6.888670
O     1.072674     3.975598     6.359902
H     0.289820     4.121014     6.932840
H     5.005992    -2.172190     3.620666
O     5.026975    -1.455944     4.287146
H     4.215001    -0.899503     4.132984
H     2.398197    -5.584101     4.835781
O     2.778464    -6.466781     4.572691
H     2.033623    -7.048133     4.397130
H     2.247220    -4.485982    -6.789576
O     2.079741    -4.976915    -5.975110
H     1.815507    -4.287720    -5.317317
H     6.439502    -4.092117    -0.507887
O     7.193397    -4.496414    -0.046767
H     7.699843    -4.916664    -0.769640
H    -1.717297     4.468403     7.740280
O    -0.817188     4.572893     8.120912
H    -0.641829     5.532361     8.146359
H    -5.130081     5.719610    -5.547078
O    -4.523890     4.954398    -5.573969
H    -3.766945     5.172819    -6.138916
H     3.268084    -2.491822    -8.431267
O     3.182231    -3.027286    -7.631589
H     4.059472    -3.003580    -7.204096
H    -0.683864     8.854533    -2.226708
O    -0.556010     9.672456    -1.697634
H     0.214142     9.493873    -1.135207
H     2.073668    -0.921165     5.223703
O     1.501254    -1.447845     5.810869
H     1.598387    -1.106364     6.709066
H     5.196674    -1.996691    -5.688877
O     5.542628    -2.761259    -6.213560
H     5.269521    -3.552883    -5.698277
H     5.702944    -5.220353     4.679646
O     5.181822    -5.137924     5.507369
H     4.460730    -5.770297     5.420989
H    -3.965175     1.131214     7.034902
O    -3.771787     1.607483     7.878648
H    -4.648660     1.988637     8.143415
H    -1.802727     9.642646    -0.610171
O    -2.586597     9.474712    -0.037137
H    -2.662427     10.232623     0.569750
H    -5.954599     4.706834    -2.896057
O    -6.864742     4.583620    -3.234895
H    -6.774875     3.886913    -3.917514
H     0.094223    -7.053220    -1.147301
O     0.559691    -7.491086    -0.401419
H    -0.118626    -7.688451     0.247563
H    -7.642310     3.803459    -1.930091
O    -7.902857     3.213002    -1.191771
H    -7.760150     2.306110    -1.535832
H     3.982749    -0.904826     6.996516
O     3.991121     0.059434     6.990770
H     4.802650     0.350481     6.558375
H     2.252787     5.810179    -1.145177
O     3.188608     5.514329    -1.031632
H     3.364061     4.979148    -1.828466
H     6.552439    -5.922237     0.661825
O     6.185039    -6.660184     1.194180
H     5.280589    -6.384274     1.422733
H    -3.861824     4.706380     7.826326
O    -3.292991     4.249749     7.163984
H    -3.486315     3.304746     7.265991
H     5.763980    -7.936769     0.122780
O     5.475283    -8.622204    -0.516109
H     4.645477    -8.295739    -0.908275
H    -0.547086     2.023475     7.719749
O    -1.182223     1.966187     6.985762
H    -2.049280     1.817913     7.382953
H    -6.384066    -0.118575     1.091281
O    -6.703723    -0.200899     0.178341
H    -7.622833    -0.470553     0.194890
H    -5.373085    -3.055753    -0.570840
O    -5.120549    -2.355868     0.057440
H    -5.690763    -1.582351    -0.127463
H     4.316087     5.585096     0.348569
O     4.651614     5.681666     1.253871
H     3.958499     6.192050     1.708145
H    -9.048193    -1.732687    -2.226041
O    -8.499507    -1.533828    -1.439826
H    -8.625608    -2.272760    -0.804760
H    -5.536072     3.496764    -5.488121
O    -6.051645     2.782108    -5.077219
H    -5.383681     2.196785    -4.666372
H     3.170463    -0.861821    -5.644313
O     2.313761    -0.981273    -6.108646
H     2.398957    -1.828483    -6.585226
H     8.103929    -1.320380    -6.027089
O     8.113278    -2.185774    -5.573211
H     7.256819    -2.585235    -5.823830
H     7.608614     1.020781    -6.300277
O     7.419557     0.173371    -6.715309
H     6.438115     0.123356    -6.750644
H    -7.859178    -3.690831     0.949453
O    -8.539140    -3.582105     0.266992
H    -8.441333    -4.339082    -0.337873
H    -2.364954     8.387640     1.202025
O    -2.316657     7.774875     1.977938
H    -1.476885     7.291104     1.841126
H    -4.586021     6.256143     3.551537
O    -4.798078     6.754061     2.745059
H    -3.960362     7.221559     2.565303
H     3.392172     3.466933    -3.552974
O     3.239726     4.435651    -3.454857
H     2.274756     4.501685    -3.561940
H    -6.121938    -1.588529    -3.418896
O    -6.203624    -2.170504    -2.636597
H    -6.986752    -1.864751    -2.125887
H     6.472669     1.044261     4.752203
O     6.079155     1.580972     5.457159
H     6.267267     2.500339     5.168810
H     1.349511     1.749105    -5.800350
O     1.157293     1.150418    -5.047493
H     1.520292     0.288485    -5.321198
H    -2.477420     2.938458     10.515878
O    -2.263902     2.032485     10.238765
H    -2.863013     1.833652     9.507282
H     7.630723    -0.496853     3.088858
O     6.880760     0.077749     3.261688
H     6.189470    -0.524651     3.639422
H    -5.659269    -8.045803    -0.698117
O    -4.923387    -8.116272    -0.053013
H    -4.926587    -7.300504     0.471294
H    -5.186602    -0.097580    -4.688461
O    -5.804024    -0.808925    -4.928903
H    -6.642293    -0.366440    -5.124892
H     1.876018    -0.166497    -7.499779
O     1.673208     0.307447    -8.342043
H     2.248957    -0.095698    -8.997195
H     4.856094    -1.355323    -9.297257
O     3.930313    -1.126302    -9.577063
H     3.908619    -1.240157    -10.526555
H     7.569480    -2.573958     4.199276
O     7.714525    -2.606491     3.239426
H     7.221541    -3.396925     2.965645
H     6.724954    -5.893116     2.674860
O     6.787616    -5.220272     3.378277
H     7.664320    -5.306436     3.794120
H    -2.064786     8.650772     3.368433
O    -1.889410     9.207664     4.174888
H    -2.714846     9.148695     4.700349
H    -7.400346     1.590349    -5.215061
O    -7.974669     0.845273    -4.971122
H    -8.876333     1.244767    -4.892920
H     6.911124    -1.046612    -8.399758
O     6.329547    -1.767529    -8.664610
H     6.102945    -2.219698    -7.833582
H    -1.697553     6.272882    -6.978407
O    -2.086870     5.441772    -6.710032
H    -1.840232     5.311412    -5.745541
H     0.013048     3.291808     9.053675
O     0.209705     2.371398     9.305223
H    -0.587922     2.105173     9.811681
H     6.750931    -2.761145    -2.705401
O     6.221589    -3.506662    -2.365293
H     6.689676    -4.316519    -2.615682
H    -4.086326    -3.050314    -4.927437
O    -4.242160    -2.935262    -5.891629
H    -4.789415    -2.141958    -5.944857
H     1.990912     2.165688     8.488495
O     2.652412     2.282036     7.796902
H     3.076359     1.412951     7.677803
H    -6.910166    -5.191017    -1.381533
O    -7.825963    -5.460297    -1.626391
H    -7.961065    -5.054982    -2.507957
H    -3.789693     5.235169     5.764655
O    -3.771306     5.989015     5.152641
H    -2.842933     6.298926     5.226709
H    -7.890282     0.099842    -1.935598
O    -7.400307     0.824334    -2.347042
H    -7.630332     0.817629    -3.300069
H     5.836009     0.139221     0.422227
O     5.614448     0.858230     1.046276
H     6.126737     0.660831     1.857284
H    -6.207005     3.294261     7.436140
O    -6.077423     2.774932     8.263574
H    -6.676755     2.012789     8.173824
H     2.276895    -8.062203    -0.852016
O     2.953308    -8.047451    -1.548775
H     2.727698    -8.759498    -2.163999
H    -2.755302    -3.934933    -6.185647
O    -2.001444    -4.502043    -5.956544
H    -1.723508    -4.212612    -5.059237
H    -5.637667     3.751423     5.348619
O    -6.284348     4.146144     5.969725
H    -6.127786     5.091008     5.952852
H    -1.023199    -7.096659    -3.163700
O    -0.549971    -6.428655    -2.633931
H     0.356616    -6.357375    -3.016607
H     4.450118     2.011543     5.146212
O     3.508275     2.252517     5.029828
H     3.126115     2.262566     5.912639
H     4.117754     4.648364     6.326543
O     4.188667     5.384195     5.713979
H     3.624236     5.141524     4.941249
H     2.766225     3.616232     3.950756
O     2.583293     4.556064     3.788248
H     2.470299     4.656368     2.820897
H     9.389615     0.225385    -1.066426
O     8.584989     0.386673    -0.570044
H     8.409872    -0.434213    -0.080113
H    -2.089168     5.297505     10.690123
O    -2.811320     4.669079     10.919610
H    -3.026643     4.840464     11.836660
H     7.972549    -2.999945     0.324841
O     8.393907    -2.154006     0.582077
H     8.329614    -2.152093     1.544466
H     5.374180     3.664501     3.545941
O     6.029392     3.928028     4.214376
H     5.618774     4.647371     4.715022
H    -4.199058     5.001471     9.826287
O    -4.831936     5.153398     9.104150
H    -5.444574     4.405185     9.101453
H    -7.017359    -3.460715    -3.465468
O    -7.638170    -4.072137    -3.914122
H    -7.118189    -4.511513    -4.618808
H     0.041380     6.107608     10.808210
O    -0.823655     6.438895     10.562260
H    -0.710367     6.873208     9.698374
H     2.579787     1.517882    -4.086147
O     3.458904     1.869203    -3.847628
H     3.779987     1.352413    -3.078956
H    -6.962569    -0.232809     7.250405
O    -7.469811     0.545765     7.533265
H    -8.095925     0.729127     6.831734
H    -2.743163    -9.863124    -0.835570
O    -2.680354    -8.920945    -0.992353
H    -3.586070    -8.555435    -0.749472
H    -10.078835     3.096993    -4.853916
O    -10.195790     2.178758    -4.575355
H    -10.409421     2.260733    -3.624948
H    -2.061283    -3.030174     4.627950
O    -2.936200    -3.470193     4.698103
H    -2.931351    -4.085716     3.939766
H    -0.173667    -7.981353     2.481407
O     0.653300    -7.771914     2.928723
H     1.370764    -8.065865     2.339904
H     6.714541    -2.384439     6.394407
O     7.163708    -3.092613     5.928207
H     6.534029    -3.827627     5.888240
H    -5.262351    -2.016242     6.965926
O    -5.938923    -1.515680     6.484929
H    -5.924743    -1.890123     5.574434
H     0.821947     3.064022    -7.086528
O     1.739311     2.732264    -7.145088
H     1.723903     1.987664    -7.774146
H    -4.055773     8.707339     6.634602
O    -4.213810     8.649847     5.686829
H    -4.235448     7.687403     5.509804
H    -2.130841     10.329137    -2.625311
O    -2.981280     10.472615    -3.061637
H    -2.850179     11.168978    -3.703216
H     9.416439    -4.062426     4.036230
O     9.137988    -4.742158     4.657632
H     8.709624    -4.271811     5.383728
H    -0.744625    -5.971189    -5.837637
O    -0.040396    -6.538447    -5.506940
H     0.794558    -6.076018    -5.724913
H     1.826929     8.280525     0.706087
O     1.521173     8.604982    -0.167730
H     2.331874     8.647688    -0.703172
H     3.484513     2.959650    -6.640011
O     4.312871     2.667779    -6.233223
H     4.069067     2.392139    -5.324608
H     3.727518     7.137555    -1.195813
O     3.936983     8.073583    -1.403690
H     4.299776     8.022411    -2.299886
H     4.379834     0.026368    -7.899488
O     4.758792     0.170050    -7.030442
H     4.576832     1.101227    -6.783693
H     6.027243     1.944752    -0.460317
O     6.591522     2.140380    -1.222108
H     7.416438     1.660141    -1.031183
H     6.681793    -8.416479    -1.623288
O     7.316466    -8.203468    -2.360231
H     7.682364    -9.036807    -2.651748
H    -5.310491    -5.764433    -5.396600
O    -5.928563    -5.091808    -5.708203
H    -5.378193    -4.322571    -5.943621
H     0.688444     7.159794     7.637076
O    -0.216182     7.194451     7.989176
H    -0.765285     7.223925     7.171036
H    -8.905353    -2.814577    -4.076659
O    -9.425895    -2.006994    -3.905217
H    -9.141482    -1.339634    -4.533517
H    -2.413614    -5.973622    -2.138023
O    -3.292579    -5.687140    -2.403710
H    -3.481183    -6.058609    -3.290573
H    -2.996205    -5.875126    -5.402414
O    -3.594784    -6.486707    -4.930709
H    -3.112245    -7.307350    -4.767889
H    -1.402443     3.759173    -6.947237
O    -0.863371     3.000199    -6.681488
H    -1.103510     2.218544    -7.234139
H    -0.220151     0.451005    -8.194852
O    -1.116119     0.684161    -7.909759
H    -1.289323     0.159265    -7.112372
H    -10.430393     4.067904    -2.686582
O    -10.496640     3.288068    -2.119712
H    -9.665867     3.260873    -1.613165
H     4.580036     4.085344     1.743738
O     4.374239     3.164364     2.025052
H     5.087116     2.588345     1.736327
H     6.475829     1.421390    -4.207202
O     6.174865     0.795006    -3.514180
H     6.206570     1.288506    -2.669355
H     9.629995    -2.212049    -0.932963
O     9.905101    -1.994583    -1.832455
H     9.103805    -1.655081    -2.273676
H     9.963071    -3.300233    -3.105932
O     9.694982    -3.950468    -3.782170
H     9.299878    -3.440941    -4.500336
H    -7.701041    -8.562430    -1.659547
O    -6.963429    -7.967547    -1.786635
H    -7.341315    -7.054609    -1.773930
H     4.149464     6.104109    -3.790632
O     4.811667     6.804009    -3.703431
H     5.647935     6.348862    -3.570839
H     0.089260    -8.145674    -5.220573
O     0.113734    -9.129001    -5.091622
H     0.262608    -9.490105    -5.965568
H    -2.336709    -8.657045    -2.718160
O    -2.104569    -8.390441    -3.627282
H    -1.458410    -9.007580    -3.989141
H     2.178613    -10.796433    -3.512310
O     2.132165    -9.842005    -3.484614
H     1.346038    -9.569718    -4.009041
H     6.824566     3.355210    -4.557282
O     6.881770     2.678614    -5.259782
H     6.087430     2.813199    -5.798961
H    -3.552940    -3.736895     7.735239
O    -3.666705    -2.946900     7.208316
H    -3.417944    -3.183468     6.288524
H    -0.650442    -3.332952    -6.714056
O    -0.019782    -2.601931    -6.719816
H    -0.500897    -1.827078    -6.375731
H     0.653726     0.444009     8.774234
O     0.660229    -0.266469     8.129062
H    -0.261476    -0.557449     8.043052
H    -5.839113     7.391067    -4.206751
O    -6.348481     6.771511    -4.763983
H    -6.633754     6.043992    -4.169633
H    -4.298183     9.120981    -3.211635
O    -4.820165     8.312224    -3.120558
H    -4.419944     7.852413    -2.367118
H    -9.722366     5.818295    -4.591287
O    -10.256059     5.012800    -4.430520
H    -11.136444     5.215565    -4.748648
H     2.772149     6.508640     6.173298
O     1.811412     6.606914     6.270343
H     1.469920     5.692013     6.168586
H     4.797858     8.559043     0.120418
O     5.116402     8.555785     1.041432
H     5.526919     7.692247     1.166016
H     4.135668    -7.402737    -4.352280
O     3.376782    -7.686253    -4.894088
H     3.097420    -8.528382    -4.519918
H     0.390420     8.667675     4.271533
O     1.053929     8.010097     4.050408
H     1.283638     7.517276     4.866040
H     5.226258     4.212378    -3.135327
O     6.187865     4.181572    -3.084326
H     6.397922     3.598344    -2.338344
H    -2.565463    -1.558546     7.592395
O    -2.056747    -0.764437     7.813671
H    -2.683401    -0.141632     8.191865
H    -9.036414     7.959338    -4.090413
O    -8.976668     7.372327    -4.845632
H    -8.019247     7.211278    -4.984828
H     3.532756    -8.972889     1.076846
O     2.856473    -8.342324     1.329812
H     3.331387    -7.537543     1.610662
H     3.589474     8.174492     1.861387
O     2.802027     7.607652     1.984118
H     2.361285     7.845987     2.810719
N    -2.533616     11.228968     2.162628
H    -2.258756     10.671106     2.917684
H    -3.357756     11.633575     2.447548
