33

H     1.770775     3.458085     6.811336
O     1.173055     3.984028     6.253465
H     0.351192     4.123647     6.776820
H    -1.756674     4.449925     7.548971
O    -0.835630     4.538054     7.899078
H    -0.672876     5.499396     8.032945
H    -0.658524     1.923279     7.674007
O    -1.294089     1.889635     6.944045
H    -2.157599     1.713941     7.341267
H    -2.517646     2.871738     10.611164
O    -2.286263     1.965389     10.313065
H    -2.885225     1.805688     9.568659
H    -0.178974     3.329031     8.891476
O     0.165659     2.492997     9.296689
H    -0.630056     2.182402     9.798774
H     1.972543     1.962133     8.298412
O     2.763568     2.227839     7.812220
H     3.217337     1.378801     7.615688
H    -2.054694     5.215259     10.781423
O    -2.839816     4.617918     10.938390
H    -3.150380     4.847059     11.819080
H     0.121880     5.699186     10.746605
O    -0.706639     6.216567     10.706129
H    -0.638328     6.712397     9.874645
H     0.644237     7.163267     7.636491
O    -0.273749     7.179177     7.969846
H    -0.788043     7.201334     7.123459
H     2.833047     6.621166     6.111218
O     1.868265     6.664893     6.225833
H     1.597761     5.725670     6.099759
N     1.599787     4.536421     10.708898
H     1.294464     3.688205     10.339268
H     2.409239     4.742155     10.231441
