12

H    -10.030561     2.964130    -4.971117
O    -10.297304     2.105369    -4.603456
H    -10.276438     2.306142    -3.642798
H    -10.032376     4.195248    -2.809743
O    -10.325186     3.498756    -2.188862
H    -9.573189     3.404604    -1.569885
H    -9.660016     5.855353    -4.735221
O    -10.010734     4.958649    -4.558270
H    -10.981297     5.031930    -4.562043
N    -12.664824     4.043739    -4.017180
H    -12.391967     3.220423    -4.447364
H    -12.362852     3.909940    -3.107921
