603

H     0.204636     3.044890    -0.681959
O     0.727349     2.378122    -1.177504
H     1.666340     2.505545    -0.902133
H    -0.074279    -1.302867     3.136573
O     0.316725    -0.601590     2.592837
H    -0.159553     0.211734     2.829366
H    -2.395112     2.425044    -0.542121
O    -2.184853     1.952695     0.280752
H    -2.199785     1.005390     0.053977
H    -4.660872     0.554497     2.170366
O    -4.978602    -0.378754     2.180030
H    -4.472340    -0.854871     1.513661
H     0.065699    -0.299538     0.938786
O    -0.132008    -0.059981     0.012529
H     0.209176     0.836470    -0.104674
H    -0.153082    -3.574970     3.757291
O    -0.432505    -2.746001     4.179681
H     0.213294    -2.577151     4.882255
H    -4.883573     2.540501     1.323323
O    -4.244824     2.128712     1.937272
H    -3.401444     2.112818     1.425632
H    -3.243592     3.916965    -2.215439
O    -2.507131     3.317437    -1.987045
H    -2.147434     3.033711    -2.847125
H    -0.123114    -3.793999     0.481561
O     0.215828    -2.977037     0.901143
H    -0.571340    -2.492160     1.215536
H    -2.375910    -1.532559     2.453629
O    -2.188120    -1.996408     1.611085
H    -2.444771    -1.406208     0.883633
H     2.078131    -1.424962    -1.130726
O     2.307764    -1.684200    -0.214565
H     1.517640    -2.113296     0.165312
H    -1.387215     1.832976     1.905467
O    -1.481736     1.432230     2.779709
H    -1.466394     2.142107     3.447370
H     0.212182    -2.688856    -1.591056
O    -0.541816    -2.074398    -1.646301
H    -0.363793    -1.352394    -1.006641
H    -3.433252    -2.911152    -0.411875
O    -2.717230    -3.401170    -0.837232
H    -2.005532    -2.770682    -1.050420
H     2.774416     0.132875     2.923820
O     2.872031    -0.052763     3.885176
H     2.963929     0.838812     4.292566
H    -3.525702     6.395116    -0.537886
O    -3.287194     7.059222    -1.236566
H    -3.145016     7.903199    -0.764235
H     3.904315     0.592900     1.178311
O     2.953600     0.411007     1.293717
H     2.717048    -0.340420     0.712763
H    -5.778036     0.860916    -1.615388
O    -4.867427     1.187850    -1.489386
H    -4.977979     2.015114    -0.975557
H    -1.209282     5.404012     2.212932
O    -1.834296     4.657150     2.093944
H    -1.912303     4.236199     2.955353
H     3.496051     2.774130     0.423015
O     3.246161     2.733303    -0.515702
H     3.581957     1.893111    -0.869334
H     1.488831    -4.672882    -2.278903
O     1.558463    -3.902950    -1.696598
H     2.354627    -3.443459    -2.045824
H    -0.917277    -0.061787    -2.553567
O    -0.282437     0.587937    -2.881683
H    -0.019780     1.171567    -2.145805
H     1.701538    -4.673315    -0.203984
O     1.806557    -5.311801     0.538233
H     1.344484    -6.122289     0.239175
H    -1.214785    -3.240852    -2.907378
O    -1.054898    -3.913811    -3.583058
H    -0.911290    -4.763097    -3.121103
H    -2.779572     3.308977     4.701342
O    -1.798382     3.305924     4.667428
H    -1.505804     2.901975     5.502735
H     0.963391     5.035920     4.078691
O     0.017231     5.267836     4.131237
H    -0.454547     4.463878     4.386950
H    -1.729283    -4.637234    -0.397498
O    -0.964499    -5.178722    -0.113550
H    -1.311802    -5.866582     0.463649
H    -3.913842     5.852777    -2.594106
O    -4.263798     5.019614    -2.927286
H    -4.108412     4.988617    -3.895488
H    -2.429532    -3.681867     1.913969
O    -2.448336    -4.587559     2.285982
H    -1.508571    -4.825953     2.426887
H    -4.693370    -2.958134    -2.919825
O    -3.841820    -3.190890    -3.328278
H    -3.509342    -3.984019    -2.862547
H     0.340131     1.376634     4.607716
O     0.845441     2.137885     4.275647
H     0.895230     2.794604     4.984553
H    -4.652259    -5.152848    -1.597916
O    -5.354838    -4.800603    -1.024490
H    -5.142505    -5.156845    -0.140714
H     2.329407    -6.459233    -4.067891
O     1.990167    -6.133516    -3.214170
H     2.425669    -6.707274    -2.551621
H     0.409089    -3.290599    -4.083749
O     1.314778    -3.031140    -4.355447
H     1.208915    -2.399003    -5.083487
H     1.965593    -1.749080     2.966295
O     2.119659    -2.679624     2.746726
H     1.434434    -2.890827     2.078506
H    -3.016383    -1.788664    -3.224646
O    -2.587393    -0.904862    -3.163346
H    -3.237552    -0.254416    -3.484996
H    -3.187741     4.985936     1.081213
O    -3.969504     5.360257     0.627410
H    -4.384631     5.916537     1.334988
H     0.877797     2.258900     2.585759
O     0.978375     2.256202     1.614507
H     1.706360     1.634368     1.449156
H     0.194019     5.672065    -0.753585
O     0.714788     6.335168    -1.261379
H     0.858077     7.133423    -0.703542
H     0.345428     7.041491     2.598888
O    -0.016762     6.663001     1.780582
H     0.647633     5.993440     1.517331
H    -2.478994     0.218993     3.329205
O    -2.700952    -0.596760     3.831290
H    -1.940756    -0.637770     4.453482
H    -0.894025     0.549769     6.014866
O    -0.620146     0.032239     5.239078
H     0.093594    -0.571805     5.524294
H     0.710686    -4.987550     1.954859
O     0.167183    -5.099310     2.758311
H     0.312388    -6.020394     3.028564
H    -2.118467    -8.076374     0.412816
O    -1.796022    -7.590645     1.199251
H    -2.582055    -7.281004     1.656802
H    -0.375542     6.883092    -2.318364
O    -1.122216     7.303654    -2.817009
H    -1.911936     7.176660    -2.253287
H    -1.110638     4.320823     0.574210
O    -0.737858     4.383589    -0.321890
H    -1.444522     4.144472    -0.954769
H    -4.408158     2.750984     3.501702
O    -4.407126     2.918647     4.466686
H    -4.490496     2.034485     4.873345
H     2.024227    -3.582281     4.223485
O     1.959601    -4.056864     5.075332
H     2.467302    -3.522507     5.707507
H     4.690075    -3.185879     0.820158
O     4.529278    -3.107790    -0.145968
H     3.670673    -2.629926    -0.227647
H    -2.719949    -0.731802    -1.366575
O    -3.048023    -0.463803    -0.492278
H    -3.848034     0.063322    -0.697818
H    -1.530790    -0.795768    -4.524069
O    -1.005598    -0.611096    -5.328068
H    -0.328626     0.026503    -5.036106
H     1.808724    -1.703844    -3.355638
O     1.895437    -0.937935    -2.755976
H     1.113421    -0.368846    -2.892934
H     3.663897    -3.118201     2.531615
O     4.622890    -3.346882     2.458516
H     4.677852    -4.307356     2.582338
H     3.426027    -6.118682     3.095512
O     3.781672    -5.915812     2.195818
H     3.044593    -5.567864     1.653861
H    -3.340924     1.635769    -4.185121
O    -4.184126     1.161981    -3.996296
H    -4.403449     1.306072    -3.039437
H    -5.079190     4.161076     0.065268
O    -5.517792     3.295386    -0.042051
H    -6.448404     3.415963    -0.322324
H     6.736032    -1.166876    -1.377723
O     5.965146    -1.019607    -0.823140
H     5.546033    -1.887891    -0.629079
H     4.597119    -3.151750    -2.488252
O     3.729153    -2.979110    -2.903553
H     3.732392    -3.596609    -3.661287
H     4.434431    -2.298361     5.605122
O     4.090800    -2.766360     6.396575
H     4.426403    -3.670958     6.312575
H    -0.752429     6.336501     5.080886
O    -1.349337     6.910889     5.620329
H    -1.362330     7.789218     5.181369
H     4.705072    -0.119319    -1.474910
O     3.937837     0.425018    -1.734141
H     3.245129    -0.173783    -2.066152
H    -0.737885     4.548093    -4.036526
O    -1.521589     5.090325    -4.242959
H    -1.370511     5.956298    -3.818465
H     0.663774     3.223248    -2.660944
O     0.668418     3.601542    -3.568942
H     0.720859     2.840553    -4.156754
H    -5.383328    -5.184707     1.766677
O    -4.686872    -5.778100     1.408795
H    -3.846116    -5.363865     1.681549
H     7.883155    -1.669214    -4.049157
O     7.625032    -1.358701    -3.147660
H     7.139436    -0.513919    -3.303061
H     3.694881    -5.049370    -5.318461
O     4.453734    -4.676689    -4.832854
H     4.842999    -5.388983    -4.292367
H    -3.783886     0.017767     4.922054
O    -4.384795     0.480298     5.555543
H    -5.045091    -0.178426     5.845732
H     3.464837    -5.929420    -0.546973
O     4.337805    -5.682067    -0.863776
H     4.414830    -4.720187    -0.717464
H     5.003168    -0.310875    -4.174788
O     4.460370    -1.020087    -4.558209
H     4.150439    -1.609924    -3.838874
H    -1.164511     1.592284    -3.948175
O    -1.818106     2.208107    -4.335549
H    -1.456827     2.552111    -5.175723
H     4.885899    -6.304706    -2.344064
O     5.217899    -6.628231    -3.210506
H     6.036498    -7.108707    -3.025180
H     8.741204    -5.072641    -2.942714
O     8.050323    -5.492665    -2.385130
H     8.085203    -6.449497    -2.490859
H     2.341040     4.730539     0.453543
O     1.761024     4.710407     1.224170
H     1.403943     3.789873     1.299231
H    -4.415476    -2.632554     4.211320
O    -5.309406    -2.292603     4.009213
H    -5.172248    -1.509522     3.436466
H    -5.845358    -3.185157     1.295886
O    -6.308805    -3.743916     1.962194
H    -6.120263    -3.311125     2.814175
H     1.687150     3.461972     6.860709
O     1.064233     3.978842     6.328091
H     0.281338     4.130763     6.900085
H     5.001170    -2.168210     3.600013
O     5.021230    -1.451940     4.266323
H     4.209776    -0.894973     4.110615
H     2.389402    -5.578217     4.812257
O     2.769168    -6.461488     4.549929
H     2.024080    -7.042395     4.374142
H     2.267012    -4.600268    -6.814691
O     2.111106    -5.040886    -5.969341
H     1.812779    -4.318718    -5.363693
H     6.441140    -4.091019    -0.526040
O     7.193213    -4.496378    -0.062882
H     7.701139    -4.916797    -0.784682
H    -1.724670     4.482167     7.701107
O    -0.825932     4.578994     8.087034
H    -0.644702     5.538046     8.114029
H    -5.114784     5.722631    -5.593387
O    -4.507500     4.958870    -5.616205
H    -3.749844     5.175353    -6.180976
H     3.374868    -2.581881    -8.505683
O     3.270155    -3.073468    -7.669866
H     4.165130    -3.061427    -7.275851
H    -0.655725     8.845942    -2.266847
O    -0.533258     9.672720    -1.745399
H     0.229189     9.496930    -1.169221
H     2.066281    -0.914941     5.197922
O     1.492706    -1.441953     5.783599
H     1.587036    -1.099613     6.681900
H     5.206898    -1.995761    -5.714677
O     5.557685    -2.763604    -6.228845
H     5.275985    -3.553214    -5.717439
H     5.694443    -5.216962     4.661435
O     5.171830    -5.134058     5.488161
H     4.450508    -5.765991     5.400773
H    -3.974435     1.140868     6.997509
O    -3.782474     1.614380     7.842588
H    -4.658524     1.999548     8.104259
H    -1.847762     9.629701    -0.732275
O    -2.708457     9.501976    -0.258549
H    -3.319218     10.132068    -0.644451
H    -5.945338     4.711763    -2.938973
O    -6.854086     4.593459    -3.283286
H    -6.764055     3.893149    -3.962326
H     0.092944    -7.046831    -1.175129
O     0.556713    -7.487204    -0.430342
H    -0.121509    -7.683102     0.219211
H    -7.635261     3.811174    -1.976289
O    -7.896891     3.222069    -1.238027
H    -7.753766     2.314393    -1.579953
H     3.973048    -0.899985     6.973262
O     3.981635     0.064192     6.966720
H     4.794067     0.355226     6.536082
H     2.261347     5.811355    -1.175857
O     3.196384     5.517964    -1.061223
H     3.374063     4.980550    -1.856177
H     6.550660    -5.920895     0.645203
O     6.181740    -6.658512     1.177140
H     5.277173    -6.381853     1.404102
H    -3.868210     4.722122     7.780871
O    -3.301696     4.260955     7.120606
H    -3.495079     3.317272     7.228804
H     5.761919    -7.935471     0.106403
O     5.473264    -8.621413    -0.532042
H     4.645167    -8.293696    -0.926591
H    -0.557600     2.034167     7.686894
O    -1.190829     1.971493     6.951614
H    -2.059318     1.829048     7.347829
H    -6.381165    -0.109602     1.048673
O    -6.702001    -0.191507     0.135736
H    -7.620996    -0.461332     0.154134
H    -5.371771    -3.048524    -0.608641
O    -5.118701    -2.347688     0.018202
H    -5.689232    -1.574396    -0.166287
H     4.320538     5.588455     0.324122
O     4.653527     5.686736     1.229924
H     3.958910     6.196177     1.682879
H    -9.043212    -1.724131    -2.270649
O    -8.493962    -1.525563    -1.484927
H    -8.622292    -2.263135    -0.848422
H    -5.521669     3.500614    -5.530567
O    -6.038779     2.787759    -5.119043
H    -5.372563     2.201824    -4.706080
H     3.217896    -0.910589    -5.583618
O     2.374178    -1.086763    -6.064910
H     2.607924    -1.825405    -6.674891
H     8.116178    -1.323409    -6.043238
O     8.125001    -2.186730    -5.585223
H     7.269779    -2.587114    -5.839679
H     7.614541     1.019024    -6.324184
O     7.426145     0.168798    -6.733223
H     6.444104     0.119565    -6.778087
H    -7.860921    -3.679847     0.908106
O    -8.538736    -3.570992     0.223395
H    -8.441149    -4.329591    -0.379344
H    -2.404699     8.747024     1.303749
O    -2.254400     8.156341     2.055202
H    -1.484032     7.603912     1.831364
H    -4.442178     6.440613     3.501322
O    -4.612228     6.868501     2.645696
H    -3.848862     7.454952     2.507778
H     3.403921     3.468769    -3.579707
O     3.249441     4.437556    -3.482326
H     2.285181     4.502941    -3.591908
H    -6.115553    -1.581007    -3.458792
O    -6.197756    -2.163309    -2.677274
H    -6.981601    -1.858046    -2.166750
H     6.468045     1.048220     4.731998
O     6.073753     1.585212     5.436201
H     6.262132     2.504589     5.147636
H     1.366792     1.751273    -5.834930
O     1.180170     1.146643    -5.084432
H     1.557436     0.293582    -5.359793
H    -2.489807     2.949666     10.479724
O    -2.277896     2.042679     10.204130
H    -2.875452     1.845166     9.471071
H     7.627796    -0.495042     3.071533
O     6.877775     0.079994     3.242582
H     6.185597    -0.521499     3.620050
H    -5.660318    -8.038100    -0.734223
O    -4.925238    -8.108394    -0.088308
H    -4.929109    -7.292771     0.436274
H    -5.176908    -0.091815    -4.726817
O    -5.792326    -0.803158    -4.972348
H    -6.631244    -0.361143    -5.166910
H     1.842637    -0.125558    -7.484747
O     1.375823     0.294005    -8.238085
H     1.355557    -0.400439    -8.916940
H     5.009196    -1.367185    -9.339550
O     4.065593    -1.108850    -9.496955
H     3.981969    -1.024636    -10.449923
H     7.563194    -2.571537     4.183222
O     7.709966    -2.604852     3.223660
H     7.216900    -3.395023     2.949396
H     6.719755    -5.891160     2.658611
O     6.781094    -5.218220     3.362007
H     7.657110    -5.304150     3.779426
H    -1.818858     8.952128     3.508405
O    -1.571362     9.254445     4.407578
H    -2.420213     9.385955     4.863217
H    -7.388467     1.596257    -5.259160
O    -7.963055     0.851144    -5.016522
H    -8.864827     1.250803    -4.939169
H     6.944822    -1.052200    -8.405323
O     6.394739    -1.795924    -8.672905
H     6.137515    -2.225838    -7.840179
H    -1.673255     6.271929    -7.019035
O    -2.072359     5.447031    -6.746124
H    -1.823064     5.314267    -5.783010
H     0.000668     3.300728     9.020500
O     0.197288     2.380211     9.273173
H    -0.601147     2.115017     9.778892
H     6.756375    -2.760961    -2.723608
O     6.226263    -3.506168    -2.383234
H     6.694363    -4.316175    -2.633079
H    -4.079721    -3.045294    -4.961598
O    -4.230106    -2.928856    -5.927036
H    -4.779966    -2.137201    -5.980907
H     1.979914     2.174363     8.460039
O     2.643642     2.288439     7.770140
H     3.065918     1.418497     7.652640
H    -6.908331    -5.183155    -1.420540
O    -7.823963    -5.451945    -1.666754
H    -7.958094    -5.047072    -2.548366
H    -3.826271     5.256069     5.698798
O    -3.793366     6.025778     5.109657
H    -2.859379     6.319930     5.204729
H    -7.884248     0.108296    -1.978136
O    -7.393769     0.832190    -2.390330
H    -7.622932     0.824129    -3.343309
H     5.838570     0.140645     0.402061
O     5.615734     0.859926     1.025229
H     6.126486     0.662956     1.837353
H    -6.215152     3.307522     7.392474
O    -6.087469     2.787131     8.219804
H    -6.687927     2.026206     8.129629
H     2.277410    -8.059597    -0.873662
O     2.953800    -8.044809    -1.570295
H     2.729158    -8.757466    -2.185053
H    -2.831210    -3.946245    -6.125074
O    -2.042686    -4.485959    -5.935762
H    -1.768012    -4.216520    -5.027713
H    -5.643125     3.763011     5.306942
O    -6.292474     4.158087     5.924810
H    -6.128295     5.102068     5.914336
H    -1.017505    -7.090153    -3.195748
O    -0.548734    -6.416377    -2.669849
H     0.362434    -6.351517    -3.043807
H     4.444807     2.015529     5.123501
O     3.503134     2.255313     5.004083
H     3.119032     2.269446     5.886082
H     4.110443     4.653328     6.302503
O     4.191032     5.385278     5.686528
H     3.623667     5.146680     4.914875
H     2.766027     3.620098     3.921469
O     2.588094     4.560556     3.757867
H     2.469228     4.661640     2.791648
H     9.393428     0.224370    -1.082019
O     8.588915     0.386737    -0.585738
H     8.412496    -0.434049    -0.096171
H    -2.100801     5.308174     10.653022
O    -2.823013     4.679218     10.882701
H    -3.041458     4.854313     11.798271
H     7.972935    -2.999727     0.309642
O     8.393987    -2.153848     0.567300
H     8.328212    -2.151442     1.529571
H     5.371988     3.667924     3.523990
O     6.027849     3.931283     4.191393
H     5.615539     4.648590     4.694408
H    -4.208740     5.013140     9.786084
O    -4.841762     5.165783     9.064340
H    -5.453740     4.417276     9.060198
H    -7.011096    -3.453880    -3.505613
O    -7.631689    -4.064150    -3.956096
H    -7.111207    -4.505259    -4.658863
H     0.027835     6.115832     10.775566
O    -0.836684     6.447906     10.528978
H    -0.720684     6.880619     9.663765
H     2.593328     1.518960    -4.109143
O     3.470195     1.872134    -3.868390
H     3.792437     1.354285    -3.100685
H    -6.973350    -0.220760     7.207270
O    -7.481767     0.557194     7.489371
H    -8.104838     0.742480     6.785671
H    -2.744098    -9.856906    -0.866887
O    -2.681643    -8.914957    -1.025265
H    -3.587234    -8.549227    -0.782706
H    -10.066768     3.104528    -4.903040
O    -10.183357     2.186356    -4.624347
H    -10.399697     2.268502    -3.674512
H    -2.068504    -3.021859     4.595246
O    -2.943802    -3.461584     4.663475
H    -2.937601    -4.077983     3.906126
H    -0.179772    -7.975825     2.454029
O     0.646348    -7.766194     2.902693
H     1.365035    -8.060840     2.315673
H     6.704979    -2.380271     6.376420
O     7.154213    -3.089303     5.911567
H     6.523941    -3.823753     5.871166
H    -5.273290    -2.005140     6.927227
O    -5.949447    -1.505818     6.444341
H    -5.933318    -1.880758     5.534380
H     0.835853     3.069443    -7.116683
O     1.753532     2.737718    -7.170978
H     1.738302     2.002992    -7.806278
H    -3.952744     8.755587     6.683028
O    -3.951178     8.755502     5.725655
H    -4.076376     7.828528     5.455958
H    -2.056046     10.335150    -2.723023
O    -2.957650     10.517372    -3.024635
H    -2.885778     11.153521    -3.735570
H     9.409617    -4.061455     4.023916
O     9.129430    -4.740711     4.645072
H     8.700329    -4.269632     5.370273
H    -0.735737    -5.971686    -5.868855
O    -0.030247    -6.534636    -5.535594
H     0.803720    -6.070544    -5.755740
H     1.828491     8.286909     0.673646
O     1.525096     8.610604    -0.203246
H     2.339870     8.649666    -0.733638
H     3.504526     2.963809    -6.665925
O     4.330974     2.675098    -6.254941
H     4.085035     2.392179    -5.349998
H     3.736289     7.140461    -1.222867
O     3.941615     8.076726    -1.434289
H     4.311630     8.022198    -2.327474
H     4.377266    -0.013798    -7.919102
O     4.760776     0.156256    -7.052789
H     4.580732     1.090245    -6.827865
H     6.032365     1.945813    -0.480482
O     6.597449     2.141514    -1.241661
H     7.421894     1.660699    -1.050045
H     6.682194    -8.416898    -1.638006
O     7.317596    -8.204412    -2.374282
H     7.684558    -9.037743    -2.664442
H    -5.302512    -5.760503    -5.432364
O    -5.918462    -5.087431    -5.747228
H    -5.367621    -4.318472    -5.980724
H     0.684225     7.168635     7.608004
O    -0.217349     7.195504     7.967525
H    -0.772791     7.212418     7.150068
H    -8.898292    -2.806396    -4.120768
O    -9.418058    -1.997975    -3.951273
H    -9.132104    -1.331642    -4.579887
H    -2.408366    -5.965686    -2.171186
O    -3.287465    -5.679471    -2.437557
H    -3.476816    -6.055212    -3.321795
H    -2.987121    -5.877583    -5.436521
O    -3.587859    -6.485081    -4.964603
H    -3.107041    -7.305757    -4.795086
H    -1.391087     3.759882    -6.985305
O    -0.851813     3.001528    -6.720830
H    -1.120289     2.208054    -7.247420
H    -0.411266     0.487816    -8.008302
O    -1.357013     0.692803    -7.841133
H    -1.540035     0.234874    -7.005562
H    -10.421406     4.077096    -2.735732
O    -10.488632     3.296434    -2.170319
H    -9.659724     3.269124    -1.660744
H     4.582052     4.088580     1.719787
O     4.373286     3.167004     1.995988
H     5.088950     2.591530     1.713186
H     6.486359     1.418802    -4.228902
O     6.183125     0.794486    -3.534664
H     6.215148     1.289215    -2.690791
H     9.632607    -2.212642    -0.946435
O     9.909568    -1.995474    -1.845380
H     9.109094    -1.656721    -2.288858
H     9.968947    -3.302340    -3.118851
O     9.700981    -3.953361    -3.794276
H     9.307533    -3.444308    -4.513886
H    -7.699613    -8.554809    -1.698120
O    -6.962283    -7.959775    -1.826309
H    -7.340227    -7.046984    -1.812938
H     4.163624     6.102950    -3.817489
O     4.824278     6.804109    -3.728647
H     5.660636     6.349390    -3.594420
H     0.098196    -8.143999    -5.246890
O     0.118257    -9.126986    -5.117775
H     0.272105    -9.489072    -5.990469
H    -2.334785    -8.651635    -2.749381
O    -2.101797    -8.385521    -3.658567
H    -1.455072    -9.002975    -4.018992
H     2.181720    -10.795085    -3.533492
O     2.134299    -9.840712    -3.505815
H     1.349076    -9.568816    -4.031306
H     6.836545     3.354889    -4.578530
O     6.895696     2.676446    -5.278562
H     6.102792     2.808053    -5.820880
H    -3.565323    -3.726275     7.700813
O    -3.679964    -2.937442     7.172366
H    -3.428279    -3.174288     6.253628
H    -0.757225    -3.392155    -6.782820
O    -0.124502    -2.675866    -6.965416
H    -0.488909    -1.922889    -6.459289
H     0.641639     0.453446     8.742826
O     0.648845    -0.259899     8.100637
H    -0.273490    -0.548179     8.012283
H    -5.831059     7.395098    -4.244936
O    -6.334110     6.777374    -4.807201
H    -6.621786     6.045809    -4.217296
H    -4.275814     9.126963    -3.252574
O    -4.811468     8.330513    -3.148169
H    -4.403253     7.849593    -2.410063
H    -9.709647     5.825638    -4.642995
O    -10.243011     5.020435    -4.481969
H    -11.123877     5.222827    -4.799106
H     2.770302     6.514034     6.145453
O     1.810196     6.610573     6.243530
H     1.466480     5.697564     6.138828
H     4.806265     8.559993     0.093881
O     5.123084     8.558463     1.015051
H     5.530611     7.694093     1.143672
H     4.141093    -7.402295    -4.373048
O     3.381547    -7.685115    -4.914548
H     3.103119    -8.527820    -4.541046
H     0.379508     8.663697     4.244751
O     1.056768     8.019238     4.014881
H     1.283471     7.524531     4.828365
H     5.237187     4.210825    -3.159028
O     6.198480     4.184032    -3.103489
H     6.407477     3.598319    -2.359086
H    -2.578619    -1.548308     7.558402
O    -2.068096    -0.755684     7.780069
H    -2.693505    -0.130244     8.156260
H    -9.025290     7.964744    -4.138413
O    -8.962198     7.381138    -4.895960
H    -8.005136     7.217958    -5.031996
H     3.528061    -8.969680     1.057014
O     2.851347    -8.338501     1.307363
H     3.326254    -7.534015     1.589487
H     3.586735     8.180656     1.837867
O     2.795739     7.617480     1.949090
H     2.350131     7.851298     2.776051
N     0.789159    -2.133084    -9.494135
H     0.062859    -2.137763    -10.122778
H     0.376516    -2.380805    -8.634365
