603

H     0.208797     3.034008    -0.680013
O     0.735950     2.369298    -1.173522
H     1.673964     2.504326    -0.900404
H    -0.036965    -1.307061     3.148258
O     0.350842    -0.604169     2.604326
H    -0.132414     0.206073     2.837539
H    -2.386144     2.396082    -0.536208
O    -2.171728     1.926434     0.287334
H    -2.182328     0.978588     0.061806
H    -4.636481     0.516597     2.182014
O    -4.947117    -0.418938     2.195138
H    -4.439999    -0.892835     1.527798
H     0.095591    -0.306975     0.949381
O    -0.103470    -0.071644     0.022547
H     0.228865     0.827623    -0.097859
H    -0.099635    -3.578174     3.774852
O    -0.383619    -2.749940     4.195592
H     0.261496    -2.575097     4.897204
H    -4.873804     2.498871     1.331066
O    -4.231189     2.093417     1.945292
H    -3.388741     2.081527     1.431870
H    -3.247244     3.878497    -2.211086
O    -2.505497     3.286448    -1.980726
H    -2.145645     3.001276    -2.840727
H    -0.071144    -3.804403     0.499850
O     0.264363    -2.985193     0.918123
H    -0.525970    -2.503617     1.230102
H    -2.337559    -1.553867     2.467727
O    -2.145304    -2.018311     1.626715
H    -2.408491    -1.433131     0.897331
H     2.110578    -1.428156    -1.125218
O     2.344859    -1.680384    -0.208124
H     1.558286    -2.112598     0.176061
H    -1.373637     1.815718     1.910700
O    -1.461598     1.417085     2.786697
H    -1.451935     2.129274     3.451915
H     0.254337    -2.700162    -1.573641
O    -0.505412    -2.093619    -1.627175
H    -0.330448    -1.366064    -0.993494
H    -3.389199    -2.947131    -0.393160
O    -2.668241    -3.434246    -0.813363
H    -1.962986    -2.798515    -1.032681
H     2.801661     0.146933     2.929825
O     2.903104    -0.035447     3.891353
H     2.988140     0.857944     4.296384
H    -3.543639     6.358208    -0.541400
O    -3.309962     7.022698    -1.241384
H    -3.173621     7.868509    -0.770771
H     3.926707     0.610403     1.181264
O     2.977685     0.421642     1.298198
H     2.745056    -0.331587     0.718004
H    -5.759355     0.806178    -1.603953
O    -4.851051     1.139457    -1.477853
H    -4.967337     1.966980    -0.966028
H    -1.218218     5.389479     2.210261
O    -1.838085     4.638094     2.093678
H    -1.912789     4.218712     2.956109
H     3.503552     2.786942     0.421926
O     3.255499     2.742958    -0.517116
H     3.593291     1.902742    -0.868262
H     1.549159    -4.684691    -2.257479
O     1.609876    -3.908626    -1.681801
H     2.400156    -3.441158    -2.034140
H    -0.894497    -0.088909    -2.550624
O    -0.264545     0.567696    -2.874609
H    -0.007858     1.151595    -2.137649
H     1.758569    -4.672917    -0.184818
O     1.872732    -5.310273     0.556845
H     1.410350    -6.122643     0.262917
H    -1.178453    -3.272186    -2.882916
O    -1.000459    -3.954093    -3.543890
H    -0.867901    -4.800488    -3.075589
H    -2.771733     3.289719     4.704612
O    -1.790479     3.293573     4.670120
H    -1.494635     2.893444     5.506081
H     0.958931     5.040506     4.074684
O     0.011386     5.266388     4.127613
H    -0.455133     4.459963     4.385286
H    -1.670707    -4.660761    -0.375222
O    -0.902049    -5.196300    -0.089755
H    -1.245737    -5.886090     0.487348
H    -3.929747     5.808491    -2.596470
O    -4.275160     4.972197    -2.926303
H    -4.120670     4.938735    -3.894617
H    -2.376804    -3.704765     1.933149
O    -2.388838    -4.609098     2.308944
H    -1.447485    -4.840928     2.448777
H    -4.649039    -3.008715    -2.899923
O    -3.795285    -3.235362    -3.306722
H    -3.458832    -4.027415    -2.842609
H     0.360853     1.378658     4.612497
O     0.862252     2.141896     4.278963
H     0.906473     2.801223     4.985800
H    -4.593272    -5.199257    -1.573372
O    -5.297055    -4.850507    -0.999065
H    -5.081190    -5.203972    -0.115225
H     2.397623    -6.461582    -4.049081
O     2.055238    -6.133032    -3.196131
H     2.492084    -6.704383    -2.532397
H     0.514888    -3.373304    -4.010135
O     1.314658    -2.999309    -4.432617
H     0.992563    -2.631003    -5.281517
H     2.005639    -1.740023     2.977297
O     2.167255    -2.669728     2.759385
H     1.482020    -2.887523     2.092895
H    -2.976718    -1.826597    -3.211435
O    -2.560551    -0.937241    -3.146037
H    -3.220490    -0.295997    -3.465329
H    -3.194840     4.955253     1.080870
O    -3.979268     5.323722     0.627039
H    -4.397739     5.878469     1.333684
H     0.890633     2.259478     2.588727
O     0.991005     2.255865     1.617458
H     1.721978     1.637624     1.452510
H     0.180196     5.659629    -0.758945
O     0.697161     6.325165    -1.267793
H     0.834135     7.125712    -0.711844
H     0.325982     7.038465     2.590661
O    -0.034193     6.655849     1.773424
H     0.634097     5.989824     1.511229
H    -2.451527     0.198809     3.339740
O    -2.667463    -0.616926     3.844482
H    -1.906350    -0.651497     4.465719
H    -0.866002     0.546958     6.023272
O    -0.588923     0.029474     5.248575
H     0.128528    -0.569392     5.534712
H     0.772295    -4.988688     1.975262
O     0.232128    -5.102178     2.780363
H     0.381252    -6.022759     3.050875
H    -2.036791    -8.101810     0.442906
O    -1.716863    -7.611525     1.228036
H    -2.504881    -7.305690     1.684714
H    -0.398673     6.863434    -2.325222
O    -1.148252     7.278706    -2.823640
H    -1.936968     7.146743    -2.259521
H    -1.113894     4.303239     0.573461
O    -0.741991     4.367213    -0.322843
H    -1.447391     4.120739    -0.954880
H    -4.397539     2.718030     3.508062
O    -4.396465     2.888015     4.472735
H    -4.473765     2.004251     4.881483
H     2.078141    -3.569266     4.238543
O     2.019862    -4.043249     5.091233
H     2.521670    -3.502266     5.722354
H     4.736728    -3.162966     0.831521
O     4.575432    -3.089410    -0.134913
H     3.713427    -2.617225    -0.218187
H    -2.690798    -0.764500    -1.353305
O    -3.019195    -0.497080    -0.478402
H    -3.823426     0.023329    -0.684474
H    -1.586875    -0.768399    -4.633492
O    -1.082120    -0.548382    -5.437644
H    -0.375847     0.052322    -5.152561
H     1.831590    -1.700586    -3.381869
O     1.919789    -0.953647    -2.757974
H     1.138629    -0.381482    -2.888315
H     3.713169    -3.097001     2.543946
O     4.673623    -3.320773     2.470204
H     4.733403    -4.280501     2.597242
H     3.497209    -6.097594     3.116371
O     3.852615    -5.895982     2.215807
H     3.113233    -5.554903     1.672069
H    -3.329341     1.591945    -4.177771
O    -4.171091     1.115789    -3.986775
H    -4.388858     1.259423    -3.029884
H    -5.082233     4.115205     0.068625
O    -5.515081     3.246263    -0.034479
H    -6.446431     3.359278    -0.315762
H     6.768150    -1.136295    -1.371770
O     5.996374    -0.992856    -0.817634
H     5.582670    -1.863324    -0.621726
H     4.641226    -3.137232    -2.478025
O     3.771887    -2.972085    -2.892872
H     3.778825    -3.589335    -3.650764
H     4.481565    -2.265566     5.614914
O     4.142796    -2.733660     6.408346
H     4.483109    -3.636519     6.326235
H    -0.764783     6.332049     5.075377
O    -1.364843     6.903700     5.614170
H    -1.384532     7.780800     5.172973
H     4.725907    -0.104397    -1.472548
O     3.954799     0.432991    -1.734260
H     3.266060    -0.171760    -2.064786
H    -0.747627     4.521325    -4.037825
O    -1.534020     5.059284    -4.245127
H    -1.388016     5.926785    -3.822435
H     0.664137     3.210232    -2.660202
O     0.668422     3.587378    -3.568539
H     0.720248     2.824466    -4.154385
H    -5.320589    -5.228225     1.792772
O    -4.620203    -5.818282     1.437093
H    -3.782273    -5.396925     1.707129
H     7.916546    -1.637105    -4.043167
O     7.657182    -1.326190    -3.142842
H     7.165318    -0.485022    -3.298878
H     3.757062    -5.042688    -5.301324
O     4.516657    -4.660158    -4.822897
H     4.908207    -5.367369    -4.275860
H    -3.753577    -0.007297     4.934345
O    -4.356588     0.452595     5.567839
H    -5.012453    -0.209802     5.859749
H     3.523805    -5.915434    -0.525852
O     4.401369    -5.668404    -0.830996
H     4.471508    -4.704166    -0.696307
H     5.027089    -0.300532    -4.166832
O     4.496069    -1.015128    -4.556478
H     4.174128    -1.601079    -3.839003
H    -1.158147     1.566734    -3.938296
O    -1.812881     2.183463    -4.322919
H    -1.458367     2.517531    -5.169579
H     4.923902    -6.229871    -2.287373
O     5.251607    -6.550918    -3.158603
H     6.134553    -6.923706    -3.009444
H     8.796986    -5.029216    -2.927343
O     8.109512    -5.462718    -2.374235
H     8.157183    -6.414882    -2.498173
H     2.334775     4.735879     0.448608
O     1.756559     4.713725     1.220453
H     1.405031     3.791166     1.297889
H    -4.367803    -2.663588     4.230627
O    -5.264127    -2.329793     4.029177
H    -5.132858    -1.547724     3.453598
H    -5.796774    -3.233277     1.317381
O    -6.255426    -3.793452     1.985974
H    -6.069263    -3.357037     2.836499
H     1.695877     3.478529     6.859642
O     1.069104     3.989931     6.326320
H     0.285614     4.137903     6.898603
H     5.044588    -2.136368     3.608669
O     5.061420    -1.418539     4.273196
H     4.245784    -0.867126     4.117584
H     2.458916    -5.561317     4.831030
O     2.844696    -6.442520     4.569847
H     2.103036    -7.028823     4.397012
H     2.307817    -4.497063    -6.798031
O     2.142129    -4.986725    -5.982648
H     1.874565    -4.298522    -5.325889
H     6.493688    -4.061203    -0.513127
O     7.246482    -4.465651    -0.049776
H     7.758515    -4.879993    -0.771611
H    -1.721761     4.477204     7.701030
O    -0.823214     4.581181     8.085683
H    -0.648696     5.541536     8.110253
H    -5.133032     5.662986    -5.593692
O    -4.520328     4.903604    -5.614528
H    -3.765021     5.123116    -6.181152
H     3.318950    -2.501681    -8.443730
O     3.234971    -3.034253    -7.642019
H     4.111893    -3.005878    -7.214288
H    -0.692760     8.824423    -2.277982
O    -0.574774     9.653631    -1.759111
H     0.189076     9.484127    -1.183000
H     2.103270    -0.899346     5.206913
O     1.535223    -1.430000     5.794660
H     1.626451    -1.083627     6.691762
H     5.242074    -1.986684    -5.701584
O     5.594321    -2.749806    -6.223694
H     5.323075    -3.542425    -5.707747
H     5.758934    -5.178930     4.676891
O     5.238159    -5.097987     5.504421
H     4.519492    -5.733390     5.419638
H    -3.949483     1.119185     7.007493
O    -3.759800     1.596050     7.851289
H    -4.638243     1.975839     8.112874
H    -1.888128     9.603996    -0.744400
O    -2.747268     9.471825    -0.269160
H    -3.363017     10.096094    -0.656617
H    -5.954428     4.652583    -2.935745
O    -6.862552     4.527597    -3.279262
H    -6.767977     3.825901    -3.956522
H     0.163330    -7.062724    -1.150367
O     0.630578    -7.492994    -0.400221
H    -0.046647    -7.696494     0.247867
H    -7.636879     3.742839    -1.969755
O    -7.893676     3.154024    -1.229549
H    -7.744980     2.246346    -1.569452
H     4.011677    -0.867283     6.980296
O     4.014017     0.096880     6.971470
H     4.823919     0.392388     6.539162
H     2.246156     5.812426    -1.182538
O     3.183740     5.525910    -1.069152
H     3.363215     4.987264    -1.862741
H     6.613250    -5.891018     0.657901
O     6.248752    -6.632707     1.188415
H     5.347527    -6.352701     1.428432
H    -3.866788     4.703000     7.782208
O    -3.297505     4.244070     7.122779
H    -3.484857     3.299400     7.233012
H     5.858375    -7.916850     0.199757
O     5.540241    -8.568756    -0.463186
H     4.678461    -8.219801    -0.774538
H    -0.538382     2.037413     7.691560
O    -1.171675     1.968542     6.956934
H    -2.038964     1.821358     7.354115
H    -6.354519    -0.162164     1.064519
O    -6.674594    -0.247683     0.151792
H    -7.591512    -0.524570     0.170129
H    -5.325241    -3.097757    -0.587857
O    -5.077237    -2.393979     0.037898
H    -5.652523    -1.624897    -0.149181
H     4.307823     5.607076     0.315447
O     4.641800     5.709581     1.220436
H     3.944391     6.215316     1.673368
H    -9.007297    -1.802215    -2.249565
O    -8.460282    -1.597227    -1.463828
H    -8.582058    -2.335009    -0.826363
H    -5.524973     3.437473    -5.525281
O    -6.037243     2.723394    -5.110145
H    -5.366454     2.142186    -4.697170
H     3.208354    -0.864919    -5.661103
O     2.352849    -0.990291    -6.126115
H     2.443604    -1.838730    -6.599816
H     8.145605    -1.294419    -6.038171
O     8.159390    -2.158132    -5.581316
H     7.305706    -2.563563    -5.832546
H     7.635579     1.043481    -6.318837
O     7.452261     0.193656    -6.731442
H     6.471231     0.137050    -6.767410
H    -7.808816    -3.743001     0.932277
O    -8.488480    -3.640355     0.248506
H    -8.385673    -4.398939    -0.353540
H    -2.437277     8.722152     1.294218
O    -2.281810     8.134538     2.047042
H    -1.508260     7.586562     1.823345
H    -4.456746     6.407205     3.499190
O    -4.630552     6.832177     2.642905
H    -3.871201     7.423242     2.502718
H     3.401861     3.470805    -3.582144
O     3.242220     4.438995    -3.488190
H     2.276851     4.497247    -3.595221
H    -6.081217    -1.643474    -3.440431
O    -6.159597    -2.223225    -2.656356
H    -6.945297    -1.921389    -2.147208
H     6.491463     1.092538     4.731501
O     6.094559     1.628021     5.435269
H     6.275456     2.548230     5.144329
H     1.372055     1.733641    -5.826135
O     1.182415     1.136513    -5.071646
H     1.550968     0.275753    -5.342189
H    -2.473758     2.946383     10.483916
O    -2.255762     2.040269     10.210212
H    -2.852787     1.836844     9.478311
H     7.660064    -0.447453     3.074350
O     6.906194     0.122967     3.243591
H     6.218121    -0.481651     3.623795
H    -5.580232    -8.089680    -0.700972
O    -4.844816    -8.153507    -0.054783
H    -4.853579    -7.336207     0.466972
H    -5.154040    -0.150065    -4.713835
O    -5.766615    -0.865869    -4.953105
H    -6.607843    -0.429803    -5.150503
H     1.911288    -0.183179    -7.519515
O     1.706041     0.287806    -8.363057
H     2.284657    -0.113666    -9.016780
H     4.899951    -1.357751    -9.311318
O     3.973175    -1.134466    -9.592773
H     3.952612    -1.253713    -10.541630
H     7.610521    -2.520828     4.190366
O     7.757620    -2.556321     3.230860
H     7.267500    -3.348827     2.958680
H     6.792189    -5.852618     2.674675
O     6.846086    -5.176606     3.373951
H     7.722747    -5.251446     3.793087
H    -1.850373     8.936545     3.497687
O    -1.603963     9.242647     4.395921
H    -2.453253     9.369517     4.852072
H    -7.378277     1.521960    -5.247010
O    -7.947879     0.773975    -5.001498
H    -8.852213     1.167469    -4.924810
H     6.952652    -1.034727    -8.413167
O     6.374892    -1.759214    -8.676508
H     6.150919    -2.211138    -7.844503
H    -1.697083     6.233244    -7.022593
O    -2.089337     5.405363    -6.748802
H    -1.839193     5.275943    -5.785434
H     0.012803     3.310909     9.021322
O     0.216118     2.392418     9.276149
H    -0.580121     2.122992     9.783157
H     6.798383    -2.733640    -2.713010
O     6.275403    -3.481719    -2.368299
H     6.743503    -4.289423    -2.624570
H    -4.035094    -3.096960    -4.943410
O    -4.190993    -2.985013    -5.908005
H    -4.743778    -2.195786    -5.963496
H     1.998921     2.197042     8.461557
O     2.661497     2.313778     7.770965
H     3.089246     1.446328     7.655175
H    -6.848282    -5.244691    -1.393572
O    -7.762411    -5.519906    -1.638189
H    -7.899308    -5.118404    -2.521121
H    -3.830724     5.232033     5.698802
O    -3.803511     6.000719     5.108062
H    -2.871457     6.301297     5.201446
H    -7.860712     0.038475    -1.962362
O    -7.376116     0.765450    -2.376099
H    -7.605022     0.753000    -3.329188
H     5.863272     0.169752     0.404567
O     5.637111     0.889690     1.025640
H     6.149333     0.698140     1.838110
H    -6.204374     3.271463     7.399580
O    -6.072399     2.753923     8.228028
H    -6.667795     1.988732     8.140104
H     2.226305    -8.039334    -0.918766
O     2.967418    -8.024462    -1.550317
H     2.753265    -8.699368    -2.221479
H    -2.697887    -3.976207    -6.198141
O    -1.940102    -4.537234    -5.967516
H    -1.664887    -4.244932    -5.070346
H    -5.637679     3.725854     5.312150
O    -6.288693     4.118013     5.930138
H    -6.131596     5.063151     5.916465
H    -0.946592    -7.120196    -3.163880
O    -0.478167    -6.446857    -2.636204
H     0.427584    -6.370697    -3.020948
H     4.461740     2.046567     5.123506
O     3.518457     2.279446     5.004119
H     3.134738     2.293470     5.886302
H     4.110221     4.684892     6.296344
O     4.186294     5.415421     5.678113
H     3.619325     5.171509     4.907778
H     2.770527     3.636724     3.918839
O     2.586910     4.575709     3.753268
H     2.465702     4.673696     2.786975
H     9.417485     0.274044    -1.081458
O     8.611042     0.431563    -0.586836
H     8.440619    -0.388457    -0.094146
H    -2.100713     5.307928     10.651220
O    -2.818285     4.674540     10.883172
H    -3.037284     4.850560     11.798428
H     8.018211    -2.958441     0.319081
O     8.434179    -2.109333     0.572645
H     8.369695    -2.102949     1.535053
H     5.375992     3.701252     3.518992
O     6.030965     3.970477     4.184973
H     5.614117     4.685889     4.687066
H    -4.207597     4.996270     9.787069
O    -4.842250     5.143100     9.065579
H    -5.449211     4.390496     9.063585
H    -6.964478    -3.521468    -3.482416
O    -7.581425    -4.137183    -3.930381
H    -7.057986    -4.576014    -4.632897
H     0.022597     6.130387     10.769644
O    -0.844419     6.456016     10.523238
H    -0.732344     6.887350     9.656815
H     2.602241     1.515018    -4.109851
O     3.478540     1.873431    -3.871638
H     3.802609     1.360508    -3.101419
H    -6.938996    -0.262123     7.223278
O    -7.452355     0.513055     7.504143
H    -8.077340     0.692445     6.800603
H    -2.651031    -9.889150    -0.832946
O    -2.595005    -8.946419    -0.989159
H    -3.503529    -8.587178    -0.748917
H    -10.066536     3.013094    -4.891362
O    -10.177425     2.094866    -4.610642
H    -10.392807     2.177364    -3.660694
H    -2.018143    -3.035839     4.613267
O    -2.889893    -3.481904     4.683838
H    -2.880531    -4.099390     3.927271
H    -0.102430    -7.981176     2.484041
O     0.721455    -7.764651     2.933610
H     1.442600    -8.057997     2.349072
H     6.754548    -2.330049     6.383299
O     7.206800    -3.038041     5.919718
H     6.580625    -3.776186     5.883583
H    -5.227173    -2.035526     6.945886
O    -5.907152    -1.541849     6.462608
H    -5.889288    -1.918660     5.553351
H     0.836511     3.040890    -7.117248
O     1.756255     2.716173    -7.174206
H     1.746758     1.968466    -7.799957
H    -3.980242     8.732888     6.674946
O    -3.978965     8.730790     5.717579
H    -4.098461     7.802479     5.449891
H    -2.103050     10.303100    -2.736677
O    -3.006226     10.478845    -3.037394
H    -2.939515     11.113089    -3.750529
H     9.466977    -3.999835     4.033772
O     9.189083    -4.680404     4.654561
H     8.759676    -4.210846     5.380647
H    -0.674027    -5.999072    -5.843568
O     0.032134    -6.560982    -5.508362
H     0.865125    -6.095867    -5.727241
H     1.798435     8.289254     0.661448
O     1.492217     8.609212    -0.215758
H     2.306057     8.652455    -0.747115
H     3.499571     2.955290    -6.667430
O     4.329543     2.670909    -6.258823
H     4.086875     2.395264    -5.349865
H     3.711909     7.151395    -1.234729
O     3.911557     8.088441    -1.448271
H     4.280156     8.034753    -2.341999
H     4.414636     0.023714    -7.917729
O     4.791526     0.172986    -7.048718
H     4.603679     1.103691    -6.805350
H     6.043677     1.974582    -0.482766
O     6.607095     2.171363    -1.245009
H     7.435009     1.697305    -1.051863
H     6.862848    -8.322727    -1.689322
O     7.434343    -8.188284    -2.475350
H     7.225381    -8.951160    -3.025863
H    -5.241822    -5.820228    -5.405526
O    -5.863822    -5.152133    -5.719211
H    -5.317928    -4.380481    -5.956890
H     0.668642     7.179980     7.599063
O    -0.232712     7.201543     7.959429
H    -0.789087     7.212691     7.142460
H    -8.856262    -2.888805    -4.096623
O    -9.381751    -2.083633    -3.928617
H    -9.100704    -1.417019    -4.559167
H    -2.346414    -6.001808    -2.144724
O    -3.226500    -5.720400    -2.412240
H    -3.412232    -6.096545    -3.297821
H    -2.926305    -5.916976    -5.409391
O    -3.521752    -6.530255    -4.936159
H    -3.034217    -7.347521    -4.770298
H    -1.395006     3.720586    -6.983532
O    -0.849478     2.968478    -6.713103
H    -1.081705     2.181705    -7.262783
H    -0.188138     0.419236    -8.218066
O    -1.085286     0.648945    -7.933598
H    -1.256446     0.123863    -7.135760
H    -10.425437     3.988188    -2.726694
O    -10.487315     3.209168    -2.158416
H    -9.657198     3.188037    -1.650516
H     4.581087     4.112476     1.714719
O     4.379648     3.190002     1.993513
H     5.098933     2.619126     1.710790
H     6.498944     1.442510    -4.227550
O     6.201225     0.816465    -3.532930
H     6.229133     1.312661    -2.689504
H     9.672810    -2.160577    -0.940875
O     9.947023    -1.944076    -1.840837
H     9.143927    -1.610975    -2.283745
H     10.014967    -3.253174    -3.109758
O     9.748116    -3.908742    -3.781332
H     9.353110    -3.405176    -4.503830
H    -7.617659    -8.621973    -1.662878
O    -6.884013    -8.022465    -1.791138
H    -7.267776    -7.112084    -1.780851
H     4.143586     6.110789    -3.826428
O     4.800153     6.816327    -3.741838
H     5.639475     6.367844    -3.605432
H     0.176904    -8.171396    -5.213568
O     0.209071    -9.153938    -5.086168
H     0.351921    -9.512585    -5.962010
H    -2.249831    -8.686930    -2.718191
O    -2.018833    -8.420268    -3.627383
H    -1.367167    -9.033937    -3.986153
H     2.483735    -10.699630    -3.625945
O     2.271935    -9.764311    -3.596750
H     1.422068    -9.638812    -4.076924
H     6.835849     3.377838    -4.582870
O     6.897781     2.699763    -5.283490
H     6.103084     2.827691    -5.823686
H    -3.507328    -3.743430     7.721717
O    -3.626763    -2.956209     7.191941
H    -3.375048    -3.193580     6.273303
H    -0.595367    -3.363617    -6.726291
O     0.029650    -2.627651    -6.734310
H    -0.457231    -1.855650    -6.392326
H     0.672912     0.467442     8.749626
O     0.684415    -0.247658     8.109431
H    -0.236156    -0.542126     8.022584
H    -5.860108     7.333322    -4.247659
O    -6.359484     6.711246    -4.808281
H    -6.641044     5.978353    -4.216901
H    -4.315129     9.078614    -3.260854
O    -4.845485     8.278980    -3.154055
H    -4.433170     7.802062    -2.415639
H    -9.727566     5.737101    -4.638686
O    -10.255455     4.928933    -4.474648
H    -11.137624     5.123926    -4.792781
H     2.757888     6.536051     6.135913
O     1.797302     6.626222     6.234871
H     1.459541     5.710706     6.132596
H     4.773857     8.581250     0.078051
O     5.092291     8.584149     0.998637
H     5.504951     7.722506     1.129069
H     4.170682    -7.351223    -4.345601
O     3.458995    -7.532664    -4.994736
H     3.145662    -8.407516    -4.737438
H     0.350378     8.664715     4.232353
O     1.032248     8.024694     4.003631
H     1.262650     7.533285     4.818047
H     5.230975     4.228367    -3.164593
O     6.192659     4.204787    -3.112599
H     6.406050     3.624742    -2.364980
H    -2.534680    -1.558914     7.573392
O    -2.029193    -0.762476     7.793075
H    -2.658693    -0.140214     8.167748
H    -9.057442     7.881515    -4.139613
O    -8.991132     7.297304    -4.896416
H    -8.033107     7.139598    -5.032518
H     3.449754    -8.982148     1.555131
O     2.866632    -8.236765     1.400811
H     3.381130    -7.456076     1.698475
H     3.558653     8.198015     1.824468
O     2.772142     7.629126     1.937603
H     2.325003     7.862048     2.764030
N     5.506848    -10.695858    -2.384354
H     5.916210    -11.530090    -2.138203
H     5.523278    -10.171576    -1.565853
