30
Coordinates from ORCA-job grain_mol_opt.QMRegion
  H   -3.54837490071782      6.41677525786682     -0.44189269925568
  O   -3.32906054040316      7.07978417524318     -1.15677924178472
  H   -3.16900346937686      7.92363543574761     -0.68907537629627
  H   -3.99709299930670      5.80339918723423     -2.51839745927941
  O   -4.30862445820772      4.97016339575139     -2.87737608896614
  H   -4.13271029653739      4.96644467434339     -3.85469082768524
  H   -0.30223466709437      6.91243245261626     -2.25744535967071
  O   -1.07116397218977      7.31317747608599     -2.75036814142842
  H   -1.82283447689151      7.15113222808393     -2.14052145721040
  H   -0.60188427534541      4.53515058205059     -4.03582812061974
  O   -1.39923005198234      5.06487279025725     -4.24729403281946
  H   -1.24829406746273      5.91638093570468     -3.79360835638620
  H   -5.11744470642252      5.63945868136637     -5.59030615453164
  O   -4.48288283430897      4.90344739589810     -5.53207595205836
  H   -3.70910408928997      5.09107535487146     -6.11652015028474
  H   -2.10200637534499      6.30131583659984     -6.93313486076699
  O   -2.17095333292979      5.37046112555648     -6.70480371913759
  H   -1.76638332717120      5.30680509799988     -5.78578491429952
  H   -1.81670515099781     10.25735202854126     -3.01807727320375
  O   -2.56462163916426     10.22738415520453     -3.63499535820343
  H   -2.24327819991592      9.67877401328629     -4.36715658235189
  H   -5.97090030012205      7.33198535931198     -4.24054578550294
  O   -6.43271602654112      6.68932129690130     -4.80388919491468
  H   -6.71455123010229      5.96139932778488     -4.18434750076378
  H   -3.99625738224354      9.10255357129314     -3.33160767719502
  O   -4.55429403001794      8.29662366216341     -3.35446639589824
  H   -4.32351823620461      7.85081371394164     -2.51876862372509
  O   -3.02649347627064      8.15589875723934     -5.81500115008879
  H   -3.61188098812926      8.72343983349723     -6.32612538877954
  H   -3.55032187813148      7.93327202841606     -5.02288923890886
