12
Coordinates from ORCA-job grain_mol_opt.QMRegion
  H   8.74656961374354     -5.09085948053712     -2.84055639733959
  O   8.04577509979957     -5.49733919725154     -2.31062656071095
  H   8.10929342009927     -6.46166670694126     -2.35357766061281
  H   6.67765462369719     -8.46544792975386     -1.50071942554585
  O   7.32363675181548     -8.17669401287488     -2.20265619715855
  H   7.62085664812865     -8.97954179803405     -2.63262837942943
  H   9.98206001653159     -3.18413044395927     -3.15946093088273
  O   9.71593989989551     -3.83813281689779     -3.83708290798921
  H   9.28696119627698     -3.32485027335919     -4.54126867490932
  O   10.52818994023630     -6.60532354611928     -4.03632831622516
  H   10.49429054386521     -5.64113435547879     -4.14389620678765
  H   11.46424408650471     -6.80228354144127     -3.94922706957446
