603

H     0.201696     3.021570    -0.682358
O     0.727000     2.354916    -1.175235
H     1.665081     2.485834    -0.899631
H    -0.072626    -1.325687     3.138132
O     0.317293    -0.623718     2.594623
H    -0.161380     0.188642     2.829675
H    -2.396702     2.393841    -0.547619
O    -2.188581     1.921309     0.276040
H    -2.198516     0.974431     0.048812
H    -4.663239     0.518804     2.162484
O    -4.978102    -0.416068     2.171702
H    -4.467238    -0.889250     1.506962
H     0.069590    -0.322009     0.940146
O    -0.128961    -0.083337     0.013955
H     0.211222     0.813383    -0.104745
H    -0.146480    -3.597387     3.759928
O    -0.430065    -2.769391     4.181319
H     0.214396    -2.597982     4.884624
H    -4.888934     2.504128     1.313430
O    -4.251227     2.091933     1.928462
H    -3.406528     2.079122     1.418564
H    -3.246600     3.883431    -2.221862
O    -2.508892     3.286702    -1.990230
H    -2.146927     3.002690    -2.849780
H    -0.109883    -3.818178     0.484147
O     0.226618    -3.000559     0.904527
H    -0.561899    -2.516198     1.215479
H    -2.371883    -1.560577     2.450430
O    -2.183383    -2.025333     1.608414
H    -2.437235    -1.435428     0.879639
H     2.085777    -1.447631    -1.130640
O     2.315557    -1.701460    -0.212955
H     1.527019    -2.132506     0.167912
H    -1.392108     1.805630     1.902108
O    -1.487548     1.405209     2.776474
H    -1.474691     2.115733     3.443637
H     0.225184    -2.711147    -1.586744
O    -0.532841    -2.102104    -1.639554
H    -0.354942    -1.375672    -1.005257
H    -3.421183    -2.945610    -0.410794
O    -2.705013    -3.433168    -0.837177
H    -1.994090    -2.801624    -1.052050
H     2.772225     0.117679     2.929203
O     2.868666    -0.067112     3.890730
H     2.957615     0.824953     4.297884
H    -3.537748     6.361170    -0.547903
O    -3.299379     7.025641    -1.246076
H    -3.160650     7.870254    -0.773849
H     3.904115     0.579260     1.185245
O     2.953669     0.394795     1.298589
H     2.720062    -0.356834     0.716816
H    -5.773100     0.820710    -1.628244
O    -4.863826     1.149396    -1.496724
H    -4.978037     1.977332    -0.984940
H    -1.224181     5.377661     2.208016
O    -1.846845     4.628882     2.088538
H    -1.925198     4.208552     2.950182
H     3.492056     2.758980     0.428198
O     3.245505     2.717279    -0.511422
H     3.581747     1.876698    -0.863262
H     1.514599    -4.700169    -2.268822
O     1.575247    -3.923690    -1.694070
H     2.369952    -3.460157    -2.042165
H    -0.909225    -0.093430    -2.561347
O    -0.276387     0.561529    -2.882724
H    -0.018466     1.143101    -2.144253
H     1.717774    -4.693016    -0.197161
O     1.823454    -5.330934     0.544919
H     1.363857    -6.143201     0.245686
H    -1.205263    -3.274429    -2.900867
O    -1.029118    -3.955701    -3.562917
H    -0.901477    -4.803753    -3.096161
H    -2.793171     3.280233     4.694850
O    -1.812020     3.278890     4.662535
H    -1.519921     2.876706     5.498886
H     0.946224     5.016410     4.078145
O    -0.000665     5.245711     4.128663
H    -0.470735     4.440715     4.384085
H    -1.712862    -4.667220    -0.397334
O    -0.946839    -5.204039    -0.108628
H    -1.293478    -5.897496     0.462463
H    -3.920248     5.816751    -2.605242
O    -4.267977     4.982419    -2.937709
H    -4.110805     4.950414    -3.905703
H    -2.409359    -3.706520     1.914448
O    -2.421743    -4.608140     2.296513
H    -1.481804    -4.850953     2.430847
H    -4.675369    -2.996450    -2.927705
O    -3.821325    -3.226757    -3.331122
H    -3.490517    -4.022167    -2.868188
H     0.331620     1.355702     4.608106
O     0.835431     2.118041     4.276505
H     0.882262     2.775370     4.985129
H    -4.559087    -5.248216    -1.598097
O    -5.287721    -4.927836    -1.028705
H    -5.016777    -5.255033    -0.144040
H     2.357834    -6.479086    -4.059648
O     2.017694    -6.152955    -3.206224
H     2.452190    -6.727309    -2.543379
H     0.490401    -3.380946    -4.023500
O     1.292935    -3.010386    -4.443580
H     0.974729    -2.638210    -5.292319
H     1.968623    -1.766171     2.971173
O     2.125769    -2.696366     2.752351
H     1.442500    -2.910109     2.083032
H    -2.996586    -1.821070    -3.232059
O    -2.577889    -0.933428    -3.161931
H    -3.233501    -0.288891    -3.483881
H    -3.199205     4.953821     1.072686
O    -3.981425     5.325352     0.617504
H    -4.399093     5.881324     1.323851
H     0.870940     2.238397     2.586920
O     0.973015     2.235284     1.615839
H     1.702829     1.615330     1.451803
H     0.184042     5.647608    -0.756199
O     0.704818     6.311772    -1.262677
H     0.844016     7.110844    -0.704997
H     0.325606     7.019481     2.596131
O    -0.034040     6.639476     1.777390
H     0.632619     5.971650     1.515663
H    -2.481710     0.190308     3.325061
O    -2.703085    -0.626086     3.826756
H    -1.943826    -0.664524     4.450621
H    -0.902964     0.526434     6.013211
O    -0.627076     0.008604     5.238224
H     0.088499    -0.592675     5.525016
H     0.725541    -5.009342     1.958805
O     0.181832    -5.121686     2.762160
H     0.327367    -6.043062     3.032207
H    -2.097262    -8.105721     0.413053
O    -1.774797    -7.616723     1.197337
H    -2.562281    -7.314336     1.657535
H    -0.385504     6.856571    -2.322213
O    -1.132063     7.275473    -2.822136
H    -1.922785     7.146132    -2.260326
H    -1.119625     4.294116     0.569978
O    -0.745105     4.357481    -0.325273
H    -1.449824     4.115738    -0.959729
H    -4.418092     2.716979     3.491997
O    -4.419558     2.885125     4.456824
H    -4.501185     2.001266     4.864127
H     2.030151    -3.598665     4.229603
O     1.964481    -4.072638     5.081629
H     2.469848    -3.536879     5.714505
H     4.700130    -3.197025     0.830913
O     4.541287    -3.119574    -0.135719
H     3.681603    -2.644153    -0.219926
H    -2.713048    -0.763906    -1.369986
O    -3.048943    -0.503239    -0.495540
H    -3.844799     0.029024    -0.705033
H    -1.598254    -0.765971    -4.647632
O    -1.090725    -0.546868    -5.450044
H    -0.382692     0.050741    -5.162517
H     1.812573    -1.714775    -3.388512
O     1.901011    -0.969436    -2.762976
H     1.123123    -0.393454    -2.895329
H     3.671430    -3.131056     2.540366
O     4.631050    -3.357300     2.468607
H     4.688145    -4.317597     2.593390
H     3.440621    -6.132096     3.105649
O     3.797608    -5.927899     2.206698
H     3.060385    -5.583363     1.662947
H    -3.332438     1.600423    -4.193409
O    -4.176524     1.127012    -4.005076
H    -4.396317     1.270943    -3.049031
H    -5.086618     4.122964     0.053892
O    -5.523577     3.256154    -0.051779
H    -6.453197     3.374874    -0.336647
H     6.745817    -1.174650    -1.362171
O     5.971753    -1.028166    -0.812003
H     5.554842    -1.897461    -0.617167
H     4.612674    -3.164334    -2.479070
O     3.745053    -2.994419    -2.896272
H     3.751907    -3.611401    -3.653948
H     4.434319    -2.307599     5.614896
O     4.090161    -2.775887     6.405890
H     4.428264    -3.679692     6.323322
H    -0.775034     6.313039     5.076371
O    -1.374594     6.885938     5.614333
H    -1.389079     7.764101     5.174967
H     4.707949    -0.133630    -1.467993
O     3.939483     0.407235    -1.731016
H     3.249559    -0.194456    -2.064168
H    -0.739266     4.519111    -4.040179
O    -1.523164     5.060374    -4.248237
H    -1.374524     5.926703    -3.823932
H     0.663228     3.199479    -2.660880
O     0.671022     3.578047    -3.568504
H     0.722054     2.816114    -4.155675
H    -5.186885    -5.247720     1.860863
O    -4.504603    -5.834776     1.473840
H    -3.668936    -5.377878     1.724968
H     7.899665    -1.674612    -4.032230
O     7.639003    -1.363989    -3.132446
H     7.150620    -0.520909    -3.288183
H     3.730406    -5.063893    -5.304969
O     4.490668    -4.689416    -4.821328
H     4.876077    -5.400766    -4.276560
H    -3.788824    -0.013665     4.915491
O    -4.393564     0.447109     5.546481
H    -5.051549    -0.213431     5.837163
H     3.485673    -5.945313    -0.536885
O     4.358249    -5.694922    -0.852362
H     4.432008    -4.732796    -0.706299
H     5.015782    -0.326792    -4.162077
O     4.482626    -1.038382    -4.554529
H     4.156945    -1.624400    -3.838734
H    -1.162479     1.566190    -3.947258
O    -1.813947     2.185799    -4.332700
H    -1.455420     2.520334    -5.177601
H     4.910849    -6.317404    -2.330377
O     5.246216    -6.639377    -3.196078
H     6.064908    -7.118984    -3.008840
H     8.764267    -5.076866    -2.922604
O     8.072676    -5.497303    -2.366649
H     8.109864    -6.454356    -2.470622
H     2.331290     4.712478     0.455565
O     1.750225     4.691253     1.225325
H     1.395058     3.770032     1.300202
H    -4.413230    -2.668112     4.203979
O    -5.308628    -2.335268     3.992711
H    -5.170988    -1.547289     3.425802
H    -5.832714    -3.272877     1.331952
O    -6.274088    -3.807245     2.048557
H    -6.032912    -3.322885     2.870221
H     1.668846     3.445907     6.862370
O     1.045459     3.960560     6.328147
H     0.261223     4.111066     6.898731
H     5.004157    -2.177117     3.610513
O     5.021131    -1.460259     4.276240
H     4.208405    -0.905688     4.119030
H     2.398952    -5.593721     4.820092
O     2.781748    -6.475701     4.558368
H     2.038761    -7.059155     4.382122
H     2.287659    -4.507812    -6.807092
O     2.117773    -4.998258    -5.992842
H     1.850438    -4.309227    -5.336445
H     6.456086    -4.098879    -0.510493
O     7.209272    -4.500908    -0.046361
H     7.719239    -4.920962    -0.766878
H    -1.747251     4.457603     7.695769
O    -0.849430     4.556877     8.083088
H    -0.670809     5.516460     8.110207
H    -5.115420     5.681760    -5.606373
O    -4.505939     4.919739    -5.626663
H    -3.748122     5.137066    -6.190826
H     3.310353    -2.513337    -8.447197
O     3.222057    -3.047383    -7.646853
H     4.097890    -3.022397    -7.216401
H    -0.671387     8.818720    -2.272194
O    -0.551773     9.646237    -1.751146
H     0.209899     9.472695    -1.173346
H     2.062927    -0.930736     5.202752
O     1.489081    -1.458644     5.787349
H     1.581239    -1.116017     6.685808
H     5.227525    -2.011612    -5.698232
O     5.576497    -2.775949    -6.221103
H     5.303733    -3.567683    -5.705732
H     5.703385    -5.223441     4.675238
O     5.178993    -5.141169     5.500866
H     4.459667    -5.775287     5.412877
H    -3.986989     1.109986     6.989764
O    -3.797891     1.584048     7.834840
H    -4.675328     1.967413     8.094842
H    -1.868154     9.600255    -0.740477
O    -2.729302     9.470439    -0.268167
H    -3.341129     10.098505    -0.655715
H    -5.948365     4.670311    -2.952803
O    -6.856311     4.548841    -3.298096
H    -6.762721     3.848719    -3.977092
H     0.118992    -7.073975    -1.169826
O     0.582520    -7.509109    -0.421335
H    -0.097837    -7.708742     0.224833
H    -7.637468     3.766507    -1.992366
O    -7.898465     3.176505    -1.254375
H    -7.752653     2.269560    -1.597465
H     3.966280    -0.909825     6.981652
O     3.972070     0.054363     6.974087
H     4.784807     0.347287     6.545332
H     2.251656     5.792453    -1.174152
O     3.187540     5.501581    -1.058374
H     3.367317     4.963857    -1.852500
H     6.568677    -5.927496     0.661483
O     6.200733    -6.665855     1.192814
H     5.295111    -6.391550     1.418429
H    -3.891529     4.691694     7.771537
O    -3.322771     4.231581     7.112340
H    -3.513632     3.287497     7.221005
H     5.786466    -7.944328     0.121452
O     5.501604    -8.630690    -0.518166
H     4.672350    -8.306615    -0.913278
H    -0.573587     2.012711     7.685067
O    -1.205300     1.947515     6.948597
H    -2.074072     1.803271     7.343497
H    -6.377043    -0.151071     1.034098
O    -6.692646    -0.254765     0.121874
H    -7.619574    -0.494540     0.138825
H    -5.369642    -3.099078    -0.646483
O    -5.180467    -2.424427     0.033147
H    -5.722389    -1.632734    -0.177524
H     4.308265     5.575903     0.329511
O     4.639825     5.675310     1.235707
H     3.943261     6.183201     1.687493
H    -9.028886    -1.767114    -2.294609
O    -8.486085    -1.565348    -1.504215
H    -8.623857    -2.300364    -0.866489
H    -5.516976     3.458004    -5.543249
O    -6.033101     2.745093    -5.130781
H    -5.365698     2.160500    -4.717404
H     3.198902    -0.880693    -5.661977
O     2.344072    -1.001979    -6.129497
H     2.433025    -1.849620    -6.604856
H     8.134723    -1.329522    -6.026881
O     8.144052    -2.194318    -5.571975
H     7.289516    -2.596056    -5.825239
H     7.635814     1.010344    -6.303837
O     7.449748     0.162394    -6.719095
H     6.468638     0.110074    -6.757467
H    -7.983216    -3.530910     0.833456
O    -8.720500    -3.593574     0.209918
H    -8.434172    -4.253737    -0.469008
H    -2.426694     8.717049     1.294955
O    -2.276196     8.127069     2.046954
H    -1.503952     7.576664     1.824745
H    -4.461964     6.406486     3.489989
O    -4.631576     6.833208     2.633718
H    -3.869669     7.421814     2.496859
H     3.404396     3.450420    -3.574625
O     3.248363     4.419043    -3.479347
H     2.283638     4.481675    -3.589086
H    -6.098895    -1.627719    -3.467866
O    -6.182124    -2.205299    -2.682284
H    -6.969423    -1.897773    -2.179668
H     6.460259     1.043878     4.743675
O     6.063104     1.580190     5.446743
H     6.249686     2.499939     5.158179
H     1.373627     1.725719    -5.827609
O     1.178763     1.127757    -5.074994
H     1.545492     0.266332    -5.345829
H    -2.513475     2.924435     10.473920
O    -2.298525     2.017962     10.198908
H    -2.894446     1.818414     9.465146
H     7.627121    -0.497419     3.086602
O     6.875144     0.075882     3.254880
H     6.183859    -0.526989     3.631887
H    -5.760076    -8.219431    -0.234323
O    -4.860358    -8.305681     0.147597
H    -4.744117    -7.467930     0.621901
H    -5.163590    -0.133546    -4.736583
O    -5.778977    -0.846614    -4.976759
H    -6.617280    -0.406366    -5.177638
H     1.910116    -0.190088    -7.522913
O     1.708852     0.283033    -8.366145
H     2.287797    -0.119355    -9.019028
H     4.898699    -1.373957    -9.308378
O     3.973511    -1.146827    -9.591951
H     3.955604    -1.262951    -10.541265
H     7.566149    -2.573064     4.198786
O     7.714745    -2.606631     3.239484
H     7.224281    -3.398411     2.965098
H     6.734207    -5.896133     2.675126
O     6.792724    -5.222074     3.377632
H     7.667993    -5.305911     3.797150
H    -1.845360     8.924907     3.500540
O    -1.600241     9.228097     4.400066
H    -2.450256     9.357927     4.854014
H    -7.378780     1.549436    -5.274060
O    -7.952159     0.803826    -5.030121
H    -8.855228     1.201071    -4.956362
H     6.950134    -1.060911    -8.403893
O     6.370227    -1.782669    -8.670096
H     6.142058    -2.235004    -7.839592
H    -1.673341     6.240132    -7.024546
O    -2.069730     5.413453    -6.753066
H    -1.822732     5.281502    -5.789304
H    -0.021185     3.281428     9.019116
O     0.177237     2.361436     9.272265
H    -0.621214     2.094505     9.777042
H     6.772776    -2.769794    -2.708268
O     6.243307    -3.515980    -2.369900
H     6.714536    -4.325156    -2.616797
H    -4.055655    -3.083770    -4.969447
O    -4.208283    -2.969385    -5.934124
H    -4.757558    -2.177738    -5.989988
H     1.962181     2.160066     8.462909
O     2.626685     2.275416     7.773968
H     3.051692     1.406610     7.658015
H    -6.900441    -5.270362    -1.504504
O    -7.865913    -5.374701    -1.674570
H    -7.971197    -5.002948    -2.578423
H    -3.846972     5.224649     5.689443
O    -3.815149     5.993834     5.099602
H    -2.882231     6.290911     5.196322
H    -7.876859     0.063320    -1.995217
O    -7.387229     0.789296    -2.404669
H    -7.613275     0.780121    -3.358809
H     5.840817     0.131824     0.412965
O     5.615466     0.851358     1.034931
H     6.124932     0.656078     1.848376
H    -6.234027     3.270876     7.379397
O    -6.106194     2.751028     8.207058
H    -6.704795     1.988802     8.116656
H     2.303618    -8.078373    -0.864862
O     2.981420    -8.062056    -1.560165
H     2.760018    -8.775862    -2.174950
H    -2.718301    -3.966823    -6.221753
O    -1.964485    -4.532329    -5.988864
H    -1.690071    -4.241452    -5.090981
H    -5.659149     3.726874     5.294615
O    -6.311056     4.119990     5.910892
H    -6.149412     5.064420     5.900714
H    -0.991103    -7.121854    -3.189248
O    -0.521505    -6.451271    -2.659424
H     0.386661    -6.379687    -3.038694
H     4.433648     2.005908     5.131156
O     3.491520     2.242949     5.009673
H     3.105728     2.256723     5.890960
H     4.089980     4.643417     6.308100
O     4.170109     5.374983     5.691613
H     3.604613     5.134633     4.919181
H     2.752799     3.605239     3.925076
O     2.572727     4.545106     3.760547
H     2.455284     4.645392     2.794080
H     9.399601     0.224309    -1.062643
O     8.591996     0.384230    -0.570694
H     8.417344    -0.435905    -0.079319
H    -2.131207     5.283914     10.646667
O    -2.852220     4.653138     10.875155
H    -3.072889     4.828047     11.790244
H     7.984044    -3.002412     0.326719
O     8.402367    -2.155106     0.584331
H     8.334880    -2.152358     1.546535
H     5.359143     3.659868     3.532517
O     6.013353     3.925427     4.200605
H     5.598163     4.641642     4.702868
H    -4.236538     4.983096     9.775892
O    -4.868427     5.133343     9.052626
H    -5.478630     4.383423     9.048158
H    -6.991625    -3.501969    -3.513708
O    -7.610409    -4.113572    -3.963111
H    -7.088906    -4.553146    -4.665442
H    -0.004851     6.097341     10.772748
O    -0.869847     6.426717     10.524224
H    -0.753337     6.859579     9.659176
H     2.598191     1.498658    -4.107929
O     3.475104     1.853236    -3.866800
H     3.795412     1.337574    -3.096726
H    -6.982885    -0.260082     7.194850
O    -7.493211     0.517102     7.474840
H    -8.116098     0.700307     6.770475
H    -2.721280    -9.886724    -0.862807
O    -2.659711    -8.945677    -1.028228
H    -3.561146    -8.581103    -0.792403
H    -10.061869     3.051095    -4.923778
O    -10.176858     2.133005    -4.644262
H    -10.395116     2.215336    -3.694990
H    -2.066660    -3.046515     4.595280
O    -2.942303    -3.486570     4.660067
H    -2.927178    -4.107833     3.906850
H    -0.160566    -7.999646     2.459189
O     0.664401    -7.785708     2.907958
H     1.384675    -8.080545     2.322985
H     6.703298    -2.383298     6.390797
O     7.155127    -3.091032     5.926483
H     6.527140    -3.827424     5.885718
H    -5.277203    -2.040841     6.918315
O    -5.953294    -1.544033     6.432373
H    -5.935730    -1.920826     5.524401
H     0.847350     3.037749    -7.117827
O     1.765737     2.708952    -7.172460
H     1.755070     1.962764    -7.799978
H    -3.984777     8.724432     6.671247
O    -3.981079     8.723750     5.713885
H    -4.103663     7.796401     5.444430
H    -2.074446     10.304041    -2.732103
O    -2.976022     10.483688    -3.035287
H    -2.904718     11.119404    -3.746667
H     9.416683    -4.058060     4.044418
O     9.137054    -4.737991     4.665072
H     8.705344    -4.267976     5.389416
H    -0.704540    -5.998205    -5.864937
O    -0.000773    -6.563569    -5.530177
H     0.834305    -6.100319    -5.745824
H     1.808964     8.267759     0.673330
O     1.506367     8.590207    -0.204258
H     2.321934     8.631412    -0.733165
H     3.508805     2.940236    -6.660505
O     4.336301     2.651219    -6.250203
H     4.090116     2.375178    -5.342334
H     3.723120     7.125434    -1.219516
O     3.926861     8.062023    -1.430909
H     4.298041     8.008462    -2.323586
H     4.414947     0.007431    -7.914053
O     4.789675     0.152920    -7.043482
H     4.605608     1.084053    -6.798726
H     6.031385     1.937240    -0.470528
O     6.597454     2.133164    -1.231012
H     7.422908     1.655180    -1.036561
H     6.711698    -8.423537    -1.621008
O     7.348377    -8.209843    -2.356013
H     7.717967    -9.042595    -2.644561
H    -5.270866    -5.800616    -5.442823
O    -5.891033    -5.129186    -5.752045
H    -5.342798    -4.358939    -5.988634
H     0.654683     7.150330     7.605794
O    -0.247648     7.174689     7.963550
H    -0.801607     7.189972     7.145087
H    -8.878634    -2.859420    -4.135083
O    -9.399605    -2.051162    -3.965831
H    -9.116190    -1.385371    -4.596171
H    -2.390177    -6.000775    -2.168302
O    -3.265792    -5.711170    -2.441669
H    -3.450004    -6.087557    -3.327456
H    -2.958785    -5.907388    -5.436609
O    -3.557527    -6.520133    -4.966244
H    -3.072198    -7.338885    -4.801358
H    -1.381571     3.726511    -6.989119
O    -0.840447     2.971381    -6.718155
H    -1.074017     2.186859    -7.270423
H    -0.184814     0.422513    -8.226440
O    -1.081862     0.655178    -7.944020
H    -1.257326     0.129397    -7.147673
H    -10.423453     4.023631    -2.757687
O    -10.489303     3.243809    -2.190897
H    -9.660816     3.219513    -1.680705
H     4.571501     4.077408     1.726578
O     4.364606     3.155285     2.002510
H     5.082650     2.581761     1.721881
H     6.494810     1.410853    -4.215104
O     6.191641     0.784780    -3.522891
H     6.220106     1.278677    -2.678094
H     9.644377    -2.212512    -0.925856
O     9.922138    -1.995492    -1.824649
H     9.121785    -1.658041    -2.268993
H     9.987539    -3.302359    -3.096544
O     9.723127    -3.953737    -3.773127
H     9.329780    -3.445718    -4.493285
H    -7.734516    -7.377966     0.468213
O    -7.504855    -7.842507    -0.357277
H    -7.752200    -7.193176    -1.037567
H     4.157817     6.087669    -3.811972
O     4.816933     6.790390    -3.724097
H     5.654082     6.338312    -3.586200
H     0.131480    -8.170923    -5.241652
O     0.156856    -9.153831    -5.111076
H     0.310143    -9.516230    -5.983736
H    -2.303763    -8.684223    -2.747660
O    -2.068230    -8.417296    -3.655969
H    -1.420168    -9.034281    -4.014960
H     2.220122    -10.815169    -3.521834
O     2.172067    -9.860721    -3.496728
H     1.386763    -9.591176    -4.023643
H     6.840934     3.345042    -4.565831
O     6.901922     2.668141    -5.267673
H     6.109298     2.800498    -5.809797
H    -3.567362    -3.755090     7.696933
O    -3.683131    -2.967341     7.167076
H    -3.427245    -3.204588     6.249715
H    -0.612574    -3.361341    -6.743012
O     0.015802    -2.628348    -6.747499
H    -0.468534    -1.854591    -6.405815
H     0.627941     0.435546     8.744298
O     0.638065    -0.277641     8.101964
H    -0.283206    -0.568835     8.012589
H    -5.839021     7.352990    -4.259455
O    -6.339353     6.733754    -4.822411
H    -6.625996     6.001485    -4.232958
H    -4.290104     9.089670    -3.265013
O    -4.823873     8.291901    -3.161115
H    -4.415672     7.812275    -2.422219
H    -9.712521     5.773140    -4.663931
O    -10.244233     4.966877    -4.502760
H    -11.124517     5.166165    -4.823505
H     2.745302     6.500480     6.147458
O     1.784759     6.594380     6.243575
H     1.443686     5.680424     6.138873
H     4.787155     8.548518     0.098905
O     5.102497     8.548276     1.020542
H     5.511688     7.684908     1.150516
H     4.173103    -7.418458    -4.359761
O     3.416309    -7.703567    -4.903685
H     3.137698    -8.546270    -4.530202
H     0.352390     8.642690     4.241004
O     1.031738     7.999824     4.012798
H     1.258240     7.506294     4.827042
H     5.235506     4.199532    -3.150347
O     6.196906     4.171801    -3.095811
H     6.405928     3.589438    -2.348731
H    -2.585040    -1.575593     7.555149
O    -2.077228    -0.781123     7.776103
H    -2.704467    -0.157436     8.152126
H    -9.034597     7.914411    -4.159575
O    -8.968698     7.330401    -4.916563
H    -8.011002     7.169584    -5.050878
H     3.553050    -8.984626     1.069689
O     2.874824    -8.354202     1.317757
H     3.347563    -7.548795     1.600454
H     3.565299     8.166996     1.841021
O     2.775919     7.601344     1.950900
H     2.327706     7.834545     2.776658
N    -8.181122    -6.136411     1.934790
H    -7.526827    -5.445735     2.115196
H    -8.917471    -5.630590     1.568353
