36
Coordinates from ORCA-job grain_mol_opt.QMRegion
  H   -4.57544416976393     -5.15402279217855     -1.49100209741315
  O   -5.31327773377312     -4.86224070278333     -0.91194238523171
  H   -5.06175207451320     -5.20036048013390     -0.02870491462070
  H   -5.79280290928631     -8.11356786312126     -0.24350860956309
  O   -5.08095425869737     -8.23626574720442      0.41575958796297
  H   -4.98861431322939     -7.37434881084724      0.86179600996142
  H   -6.82400247576812     -5.29880240177460     -1.31857378679249
  O   -7.74078474439321     -5.58638078587493     -1.58192408441559
  H   -7.84781004407246     -5.15045487852675     -2.45892330037611
  H   -0.90092191529536     -7.18730637829616     -3.06463674698347
  O   -0.46167062913531     -6.46951254559945     -2.57365251880279
  H   0.44270259932852     -6.37527149397410     -2.96837340686382
  H   -6.96932242120724     -3.46607227356441     -3.41971077939918
  O   -7.57017511365464     -4.11046241510290     -3.86522046871431
  H   -7.05019913701915     -4.44344894138830     -4.62954928171812
  H   -2.68183278462883     -9.79869448794227     -0.51387598493331
  O   -2.79307321737698     -8.87604015981548     -0.75741683845356
  H   -3.69742455190238     -8.63705614447319     -0.41047483898871
  H   -5.35013198994843     -5.73075508006723     -5.63328248972543
  O   -5.95741288993642     -5.02768327396671     -5.90619393562635
  H   -5.35147628535262     -4.27330855900449     -6.06997787704661
  H   -2.39883796952349     -5.84091547408425     -2.19177463359358
  O   -3.31860037646155     -5.70634210255603     -2.45718816622233
  H   -3.40688734566957     -6.01426271216591     -3.38837852861355
  H   -2.93774550359738     -5.85536902354795     -5.50992020607243
  O   -3.51852299844417     -6.49974741538368     -5.04984938542344
  H   -2.94367158422419     -7.27397062706631     -4.87715908210186
  H   -7.60388271857274     -8.66910088831282     -1.64741151450270
  O   -6.87042899835180     -8.05245552399816     -1.72241444264660
  H   -7.29416241058463     -7.13688918430623     -1.73264011470645
  H   -2.82434809897557     -8.78283087819044     -3.33424547998994
  O   -2.05023668914321     -8.39599614962889     -3.78946320289175
  H   -1.52549367369949     -9.10412057080219     -4.18258232094607
  O   -4.78097849214067     -9.03669975489198     -3.42113068617198
  H   -5.45952230070921     -8.65740586686222     -2.82923110485393
  H   -5.04466897210367     -8.73112239751543     -4.29420148627334
