45
Coordinates from ORCA-job grain_mol_opt.QMRegion
  H   -0.08969504634122     -1.29655523876676      3.05442789565673
  O   0.38857774713689     -0.59946215555559      2.57478783448233
  H   -0.07719879105557      0.22144350542810      2.81822753186136
  H   -0.27926955908919     -3.60292253962305      3.66238685853690
  O   -0.66477911064807     -2.80466397244614      4.06123372182663
  H   -0.42004285675967     -2.86665299005007      5.01436692963606
  H   2.01221758757598     -1.80357817642189      2.93936548112515
  O   2.10159656650527     -2.76131302441041      2.80622072985311
  H   1.48935345992011     -2.94773548262145      2.06407471629579
  H   -2.46506366263963      0.23554655254603      3.31562150660875
  O   -2.71879006425340     -0.58914763101100      3.79190027691863
  H   -1.95918731117446     -0.64898333705899      4.40928932729140
  H   -0.87763315057870      0.58041523276673      6.00810240523221
  O   -0.60095217600309      0.03821057121576      5.24303890714624
  H   0.19564881421629     -0.46802377517687      5.54111301752198
  H   0.69933810834509     -5.13459594058150      1.87465936742454
  O   0.18915854833601     -5.20041954539854      2.70835634001165
  H   0.29153679078308     -6.13685991342704      2.96045076636283
  H   1.94715767819911     -3.62730819241997      4.41178806934838
  O   2.05985170210072     -4.11230191885457      5.25684890749115
  H   2.74894378720756     -3.58414212888826      5.72317764961055
  H   4.57973138101257     -2.37064376644435      5.58008488357737
  O   4.27061043788675     -2.88288877966399      6.36761583688751
  H   4.63894977848476     -3.77466843596098      6.21085921914508
  H   2.38098147437453     -5.71630672572241      4.83355313238384
  O   2.77837677916661     -6.57817990834199      4.55370289360003
  H   2.05677231959582     -7.16852028224429      4.31464719446896
  H   2.14250765923513     -0.72121442765388      5.21719566203663
  O   1.62263043955412     -1.16710177370290      5.91377689721027
  H   1.77009812755520     -0.67167579470501      6.73392971852216
  H   -2.27463218377862     -3.21081554010300      4.35702686563656
  O   -3.13073797338184     -3.66545698829098      4.56062464485817
  H   -3.16962306052997     -4.32595104330684      3.84700891410764
  H   -3.51839848883683     -3.61715695523979      7.76660925656146
  O   -3.63838205493514     -2.93695325254481      7.10292862411156
  H   -3.45345584797246     -3.36618808161372      6.23339632922640
  H   0.62715680493026      0.47111419746223      8.94605193943513
  O   0.57303512447266     -0.31269303383021      8.38648104053395
  H   -0.38823347181777     -0.44748259784119      8.26699232653097
  H   -2.62283449329554     -1.50013928312024      7.53591607020776
  O   -2.14549376618013     -0.70367025278251      7.84662506483020
  H   -2.82019939474842     -0.13638485444593      8.23771078187106
  O   -0.20467246161332     -3.39974419398231      6.67745580287113
  H   0.66156113519522     -3.73009731334421      6.35931622238590
  H   0.03894768747440     -2.62008688450588      7.18840723181131
