30

H     3.495994     2.653835     0.346285
O     3.295966     2.676306    -0.606005
H     3.544915     1.793536    -0.945377
H     4.245288     5.651505     0.267617
O     4.571760     5.765861     1.179148
H     3.856633     6.293668     1.587470
H     6.539913     1.040929     4.798069
O     6.134068     1.561950     5.507466
H     6.277153     2.486654     5.211769
H     7.550667    -0.668145     3.057136
O     6.878451     0.002355     3.237553
H     6.161486    -0.558527     3.644153
H     5.767499     0.022729     0.317296
O     5.554147     0.737281     0.949730
H     6.033660     0.492682     1.767333
H     9.444362     0.103624    -1.095175
O     8.668897     0.311237    -0.560666
H     8.473589    -0.531744    -0.111561
H     5.345797     3.696419     3.605378
O     6.066226     3.975310     4.215480
H     5.663312     4.697590     4.731173
H     6.071108     2.030204    -0.559877
O     6.641418     2.125234    -1.332613
H     7.428932     1.601811    -1.111812
H     4.482038     4.169056     1.738006
O     4.434758     3.219724     2.007739
H     5.291835     2.869213     1.720176
N     7.286925     3.300656     1.625760
H     7.295702     3.727664     2.494435
H     7.878734     2.546850     1.703488
