603

H     0.191477     3.024149    -0.694546
O     0.715355     2.354130    -1.184559
H     1.653924     2.485649    -0.912646
H    -0.078890    -1.308096     3.143265
O     0.313076    -0.608634     2.598014
H    -0.165737     0.204915     2.828991
H    -2.405854     2.401965    -0.549983
O    -2.195606     1.931707     0.275163
H    -2.211045     0.983896     0.050406
H    -4.667799     0.539974     2.171888
O    -4.983871    -0.393947     2.186802
H    -4.478722    -0.871505     1.520563
H     0.060109    -0.312969     0.941981
O    -0.137577    -0.079477     0.014524
H     0.198901     0.817986    -0.108691
H    -0.154377    -3.577613     3.773912
O    -0.434280    -2.747386     4.193389
H     0.212121    -2.574570     4.894366
H    -4.893465     2.521613     1.318403
O    -4.253062     2.113087     1.932915
H    -3.411124     2.095549     1.418251
H    -3.258925     3.885349    -2.225298
O    -2.519216     3.293111    -1.990456
H    -2.170245     2.993028    -2.852065
H    -0.126516    -3.810423     0.499308
O     0.213027    -2.992514     0.916418
H    -0.574632    -2.505544     1.226841
H    -2.380641    -1.543150     2.461976
O    -2.191645    -2.010851     1.622070
H    -2.450500    -1.425096     0.891319
H     2.068957    -1.449464    -1.129671
O     2.301370    -1.701557    -0.212032
H     1.512199    -2.128184     0.172872
H    -1.398728     1.819111     1.898331
O    -1.487825     1.423059     2.775553
H    -1.474248     2.136855     3.438859
H     0.206067    -2.712697    -1.574789
O    -0.551049    -2.103318    -1.630479
H    -0.372711    -1.373723    -0.999860
H    -3.438951    -2.935652    -0.395666
O    -2.722074    -3.428449    -0.816302
H    -2.012508    -2.797316    -1.035918
H     2.767894     0.129259     2.922246
O     2.867940    -0.051671     3.884219
H     2.958065     0.842063     4.287291
H    -3.541009     6.369348    -0.564094
O    -3.303206     7.032301    -1.263868
H    -3.162185     7.877472    -0.793851
H     3.896177     0.582863     1.173032
O     2.946100     0.399767     1.290282
H     2.709133    -0.353154     0.711477
H    -5.787136     0.829340    -1.611597
O    -4.878158     1.155855    -1.477468
H    -4.991136     1.986536    -0.971187
H    -1.221995     5.392889     2.191154
O    -1.846374     4.645050     2.076604
H    -1.923207     4.227763     2.939786
H     3.485384     2.760143     0.409374
O     3.238173     2.716281    -0.529798
H     3.570348     1.873113    -0.879144
H     1.490201    -4.706028    -2.254259
O     1.554078    -3.928082    -1.682127
H     2.347770    -3.466004    -2.034015
H    -0.929409    -0.094700    -2.557847
O    -0.287009     0.550105    -2.881155
H    -0.033946     1.140102    -2.148060
H     1.698424    -4.690774    -0.182627
O     1.806377    -5.326878     0.560737
H     1.343394    -6.138716     0.266208
H    -1.229441    -3.276815    -2.886381
O    -1.056349    -3.962355    -3.545372
H    -0.928572    -4.807590    -3.073834
H    -2.787908     3.307107     4.689502
O    -1.806673     3.305498     4.655533
H    -1.513249     2.905049     5.492131
H     0.952953     5.035417     4.056870
O     0.006772     5.266992     4.109973
H    -0.464516     4.463540     4.368190
H    -1.731593    -4.658928    -0.374003
O    -0.966130    -5.199651    -0.089393
H    -1.312849    -5.884788     0.491329
H    -3.928826     5.816992    -2.620266
O    -4.283604     4.982386    -2.943418
H    -4.128933     4.939885    -3.912391
H    -2.432058    -3.694772     1.932297
O    -2.449541    -4.598759     2.309001
H    -1.509522    -4.835415     2.450136
H    -4.698402    -2.994938    -2.904071
O    -3.847301    -3.230695    -3.311080
H    -3.514702    -4.020638    -2.841222
H     0.333783     1.378048     4.601956
O     0.839714     2.137751     4.267317
H     0.887375     2.798263     4.972774
H    -4.656097    -5.183735    -1.571314
O    -5.358851    -4.830597    -0.998581
H    -5.144704    -5.182243    -0.113530
H     2.326066    -6.493024    -4.040664
O     1.988494    -6.163435    -3.187725
H     2.423971    -6.735217    -2.523401
H     0.462404    -3.390956    -4.011516
O     1.265547    -3.026209    -4.435819
H     0.946995    -2.653261    -5.283371
H     1.961264    -1.752977     2.973247
O     2.117322    -2.684166     2.757594
H     1.431384    -2.899273     2.091102
H    -3.029198    -1.865425    -3.156376
O    -2.589887    -0.982191    -3.125178
H    -3.270020    -0.334198    -3.398624
H    -3.200750     4.967665     1.061773
O    -3.983100     5.340058     0.607702
H    -4.398414     5.898340     1.313091
H     0.869176     2.251874     2.576702
O     0.969677     2.245939     1.605545
H     1.696944     1.623164     1.441552
H     0.178093     5.648597    -0.779000
O     0.700411     6.310579    -1.287466
H     0.840122     7.111343    -0.732914
H     0.331890     7.033868     2.568920
O    -0.030539     6.651891     1.752459
H     0.633692     5.981416     1.491237
H    -2.484776     0.211820     3.330772
O    -2.705744    -0.601590     3.837315
H    -1.944792    -0.639325     4.458587
H    -0.897881     0.556064     6.014168
O    -0.623958     0.035299     5.240612
H     0.090526    -0.566719     5.527752
H     0.709640    -4.996808     1.977376
O     0.167732    -5.106088     2.782103
H     0.313781    -6.025985     3.055725
H    -2.116699    -8.095985     0.451380
O    -1.794313    -7.607096     1.235905
H    -2.580518    -7.295117     1.691617
H    -0.392522     6.853587    -2.346405
O    -1.138807     7.274896    -2.844370
H    -1.929225     7.145445    -2.282042
H    -1.123834     4.302865     0.555219
O    -0.750356     4.363565    -0.340408
H    -1.456647     4.118736    -0.973508
H    -4.416268     2.742334     3.493584
O    -4.415148     2.914195     4.458067
H    -4.497174     2.031649     4.868368
H     2.023392    -3.580277     4.238317
O     1.960975    -4.051662     5.092165
H     2.467265    -3.513152     5.721865
H     4.685307    -3.195796     0.831236
O     4.524388    -3.122131    -0.135324
H     3.664999    -2.645455    -0.219085
H    -2.728368    -0.758492    -1.361046
O    -3.055812    -0.490323    -0.485928
H    -3.855758     0.037130    -0.693035
H    -1.582317    -0.844232    -4.645262
O    -1.028008    -0.587749    -5.411025
H    -0.300928    -0.066950    -5.038508
H     1.789749    -1.725266    -3.385423
O     1.883063    -0.978218    -2.763324
H     1.103586    -0.402023    -2.891428
H     3.661241    -3.121414     2.543168
O     4.620475    -3.349865     2.469890
H     4.676054    -4.309693     2.598352
H     3.427459    -6.120182     3.120661
O     3.782462    -5.920998     2.219804
H     3.044551    -5.576227     1.676874
H    -3.360391     1.560816    -4.127041
O    -4.223651     1.114301    -3.915819
H    -4.410077     1.274196    -2.953328
H    -5.092040     4.137235     0.051512
O    -5.532545     3.271399    -0.045401
H    -6.461384     3.389933    -0.331271
H     6.728639    -1.185389    -1.374921
O     5.956834    -1.035709    -0.822567
H     5.538339    -1.903372    -0.623778
H     4.589624    -3.175380    -2.478289
O     3.721494    -3.005921    -2.894334
H     3.725200    -3.625807    -3.649431
H     4.433655    -2.287501     5.612410
O     4.091928    -2.752220     6.406585
H     4.427542    -3.657081     6.325918
H    -0.763784     6.338599     5.054904
O    -1.360600     6.914872     5.592501
H    -1.375297     7.791071     5.149310
H     4.691856    -0.141688    -1.479007
O     3.924178     0.399797    -1.742351
H     3.231712    -0.201515    -2.071288
H    -0.758295     4.507493    -4.055562
O    -1.538851     5.053566    -4.262314
H    -1.384845     5.920390    -3.842609
H     0.648139     3.193524    -2.674914
O     0.658489     3.570140    -3.583025
H     0.696237     2.806806    -4.169207
H    -5.384192    -5.201783     1.794031
O    -4.687309    -5.796714     1.439360
H    -3.846954    -5.379556     1.708823
H     7.874665    -1.696552    -4.046111
O     7.617210    -1.382296    -3.146825
H     7.129264    -0.539071    -3.304213
H     3.696970    -5.084763    -5.294579
O     4.459646    -4.709850    -4.815160
H     4.844920    -5.419309    -4.267893
H    -3.788113     0.016336     4.925548
O    -4.388790     0.480537     5.558290
H    -5.048440    -0.177596     5.851015
H     3.463588    -5.946921    -0.522457
O     4.335739    -5.699554    -0.841721
H     4.411303    -4.736903    -0.699307
H     4.991657    -0.344701    -4.174036
O     4.457572    -1.057855    -4.562450
H     4.131977    -1.639579    -3.843072
H    -1.152190     1.565128    -3.900119
O    -1.835240     2.163404    -4.263593
H    -1.515010     2.506945    -5.124322
H     4.883217    -6.328327    -2.318387
O     5.215721    -6.654725    -3.183698
H     6.034456    -7.134238    -2.996665
H     8.737195    -5.095902    -2.925821
O     8.046616    -5.513385    -2.366421
H     8.082048    -6.470845    -2.466831
H     2.327268     4.715934     0.431615
O     1.749688     4.698485     1.204058
H     1.392133     3.778316     1.282632
H    -4.417553    -2.637826     4.226868
O    -5.311983    -2.299611     4.024301
H    -5.175986    -1.519255     3.447316
H    -5.849117    -3.205221     1.314480
O    -6.311218    -3.761690     1.983997
H    -6.122474    -3.324561     2.833669
H     1.680404     3.474719     6.845306
O     1.056623     3.988740     6.311011
H     0.273798     4.142075     6.882668
H     4.998184    -2.165595     3.606175
O     5.018515    -1.446348     4.269182
H     4.206042    -0.890886     4.112014
H     2.391898    -5.573242     4.835451
O     2.772416    -6.457401     4.576876
H     2.027648    -7.039680     4.404210
H     2.251499    -4.532279    -6.794773
O     2.082450    -5.019756    -5.978597
H     1.817896    -4.327645    -5.323794
H     6.436592    -4.105348    -0.510742
O     7.190493    -4.507062    -0.047420
H     7.697818    -4.930292    -0.767851
H    -1.731787     4.494428     7.683856
O    -0.832967     4.594150     8.068963
H    -0.652863     5.553535     8.091118
H    -5.182346     5.763196    -5.540831
O    -4.569333     5.000383    -5.620132
H    -3.805583     5.287619    -6.148934
H     3.273147    -2.544844    -8.445198
O     3.186232    -3.077409    -7.643773
H     4.062684    -3.051035    -7.214541
H    -0.677152     8.815853    -2.302607
O    -0.553549     9.646242    -1.786140
H     0.209057     9.473001    -1.209590
H     2.063217    -0.908635     5.200993
O     1.491732    -1.434410     5.789851
H     1.585539    -1.087125     6.686302
H     5.197569    -2.035902    -5.703580
O     5.543918    -2.802750    -6.224901
H     5.271667    -3.592023    -5.705525
H     5.695723    -5.209021     4.680752
O     5.174160    -5.123439     5.507782
H     4.452948    -5.755955     5.423571
H    -3.978314     1.147755     6.996404
O    -3.786339     1.624945     7.839550
H    -4.662610     2.010331     8.099992
H    -1.866741     9.605511    -0.771560
O    -2.726454     9.480253    -0.295302
H    -3.338979     10.105790    -0.685820
H    -5.959468     4.670658    -2.961057
O    -6.867396     4.544596    -3.306704
H    -6.769391     3.844832    -3.984127
H     0.093362    -7.072931    -1.141768
O     0.558467    -7.507842    -0.394115
H    -0.119926    -7.701519     0.255922
H    -7.646788     3.774131    -1.990594
O    -7.909850     3.190380    -1.248474
H    -7.764656     2.280504    -1.583571
H     3.971346    -0.883947     6.974774
O     3.979278     0.080197     6.964650
H     4.790699     0.370269     6.531493
H     2.245370     5.789589    -1.201309
O     3.181666     5.498372    -1.087611
H     3.357575     4.956830    -1.880069
H     6.549471    -5.929682     0.667499
O     6.181916    -6.665659     1.202455
H     5.277315    -6.388977     1.429623
H    -3.875695     4.732495     7.764104
O    -3.308784     4.269005     7.105923
H    -3.501476     3.325624     7.217781
H     5.763200    -7.947175     0.137368
O     5.475794    -8.635744    -0.498873
H     4.645959    -8.311735    -0.892964
H    -0.562128     2.047873     7.679528
O    -1.195777     1.981296     6.945043
H    -2.063922     1.839679     7.342293
H    -6.388401    -0.131267     1.055434
O    -6.710879    -0.219355     0.143760
H    -7.629626    -0.489337     0.165022
H    -5.376844    -3.075753    -0.591468
O    -5.125310    -2.373155     0.033825
H    -5.695013    -1.600054    -0.154373
H     4.305294     5.575554     0.297084
O     4.640202     5.678228     1.201769
H     3.945432     6.188370     1.653805
H    -9.051450    -1.764246    -2.255175
O    -8.501992    -1.560989    -1.471116
H    -8.628099    -2.295850    -0.831120
H    -5.548212     3.484991    -5.583438
O    -6.057696     2.773511    -5.146647
H    -5.375921     2.258472    -4.663124
H     3.170475    -0.901502    -5.666709
O     2.315013    -1.023253    -6.133000
H     2.401625    -1.873313    -6.604032
H     8.104675    -1.359453    -6.042744
O     8.114277    -2.222841    -5.585129
H     7.258147    -2.623910    -5.834050
H     7.608685     0.979679    -6.327100
O     7.420349     0.130692    -6.739274
H     6.438983     0.079753    -6.774303
H    -7.863817    -3.703672     0.930453
O    -8.543026    -3.599340     0.246384
H    -8.444058    -4.359855    -0.353705
H    -2.421784     8.730666     1.268661
O    -2.269672     8.143984     2.022936
H    -1.499594     7.590742     1.800115
H    -4.454568     6.431770     3.477788
O    -4.626291     6.856543     2.621041
H    -3.863167     7.442345     2.479185
H     3.388886     3.436824    -3.596031
O     3.234818     4.406066    -3.504443
H     2.269412     4.468600    -3.611254
H    -6.122166    -1.619077    -3.450548
O    -6.205537    -2.199203    -2.667732
H    -6.987411    -1.891384    -2.156175
H     6.462526     1.057454     4.722973
O     6.068808     1.596921     5.425532
H     6.254955     2.515380     5.132383
H     1.348237     1.708646    -5.835521
O     1.159643     1.112563    -5.080197
H     1.523784     0.250304    -5.351024
H    -2.493241     2.973442     10.469464
O    -2.280539     2.065420     10.197953
H    -2.878198     1.863997     9.466007
H     7.622617    -0.492536     3.069024
O     6.872229     0.082807     3.237250
H     6.180581    -0.517280     3.618197
H    -5.659637    -8.066520    -0.693852
O    -4.924462    -8.133606    -0.047711
H    -4.928402    -7.315287     0.472743
H    -5.235334    -0.137525    -4.677111
O    -5.832313    -0.858262    -4.957016
H    -6.696284    -0.425366    -5.088914
H     1.868778    -0.215874    -7.528599
O     1.657178     0.248124    -8.374342
H     2.244964    -0.148436    -9.023128
H     4.859995    -1.410940    -9.314853
O     3.934682    -1.182843    -9.597610
H     3.914809    -1.303892    -10.546239
H     7.561321    -2.563144     4.189163
O     7.708121    -2.601208     3.229751
H     7.214822    -3.392657     2.959574
H     6.720526    -5.890932     2.680415
O     6.781945    -5.214505     3.380351
H     7.658212    -5.297796     3.797738
H    -1.834025     8.946100     3.471617
O    -1.586411     9.252719     4.369442
H    -2.435236     9.385156     4.824818
H    -7.444152     1.634612    -5.220584
O    -8.002686     0.864283    -4.993044
H    -8.914340     1.242299    -4.886795
H     6.913916    -1.098151    -8.417667
O     6.332525    -1.820257    -8.679765
H     6.105718    -2.268778    -7.846748
H    -1.687915     6.264676    -6.966986
O    -2.065226     5.420903    -6.702040
H    -1.816998     5.318750    -5.731759
H    -0.004322     3.320940     9.006820
O     0.193796     2.401923     9.263879
H    -0.604157     2.137954     9.770996
H     6.749713    -2.784920    -2.714807
O     6.220313    -3.529247    -2.372293
H     6.689664    -4.339942    -2.617430
H    -4.107555    -3.143573    -4.890103
O    -4.233200    -3.037984    -5.862744
H    -4.770088    -2.234370    -5.923509
H     1.975723     2.194441     8.449813
O     2.639168     2.306325     7.759280
H     3.062060     1.436277     7.644984
H    -6.911391    -5.216266    -1.392145
O    -7.826912    -5.487101    -1.636999
H    -7.961472    -5.085981    -2.520306
H    -3.835854     5.257172     5.679712
O    -3.804374     6.024880     5.087965
H    -2.870520     6.320087     5.180436
H    -7.894314     0.070543    -1.971462
O    -7.406464     0.794274    -2.386743
H    -7.633389     0.782290    -3.339586
H     5.830263     0.129806     0.397631
O     5.608279     0.852392     1.017168
H     6.119003     0.659276     1.830225
H    -6.221150     3.313578     7.383647
O    -6.092595     2.796960     8.213265
H    -6.692126     2.034896     8.126541
H     2.277630    -8.079383    -0.839230
O     2.953954    -8.067550    -1.536156
H     2.729263    -8.783108    -2.147557
H    -2.753156    -3.980527    -6.197211
O    -1.998919    -4.545335    -5.965862
H    -1.721584    -4.253014    -5.068819
H    -5.651535     3.760412     5.295540
O    -6.300431     4.157517     5.912709
H    -6.137725     5.101686     5.897174
H    -1.021402    -7.127306    -3.159852
O    -0.549598    -6.455900    -2.633371
H     0.357891    -6.386485    -3.014274
H     4.438459     2.023883     5.112467
O     3.496560     2.262030     4.992550
H     3.112715     2.279722     5.874583
H     4.101574     4.666425     6.279808
O     4.181667     5.395521     5.660392
H     3.613702     5.153133     4.890225
H     2.756434     3.621265     3.904263
O     2.578218     4.560965     3.736901
H     2.457618     4.657615     2.770305
H     9.385402     0.210783    -1.087790
O     8.579666     0.374167    -0.593969
H     8.404502    -0.443796    -0.099198
H    -2.106711     5.333252     10.632182
O    -2.827900     4.704420     10.865395
H    -3.045881     4.883488     11.780294
H     7.968429    -3.008053     0.317839
O     8.389428    -2.160768     0.571025
H     8.323768    -2.153754     1.533340
H     5.362505     3.670124     3.504749
O     6.018773     3.937268     4.170401
H     5.605557     4.655886     4.670879
H    -4.215237     5.031559     9.768299
O    -4.849195     5.180682     9.046680
H    -5.460057     4.431244     9.045743
H    -7.017505    -3.495444    -3.485524
O    -7.637724    -4.109002    -3.932466
H    -7.116515    -4.552467    -4.633440
H     0.021023     6.143576     10.749492
O    -0.843968     6.474107     10.502482
H    -0.729248     6.902703     9.635007
H     2.577798     1.486470    -4.119389
O     3.457505     1.838017    -3.883035
H     3.777129     1.325476    -3.110786
H    -6.975596    -0.216231     7.214219
O    -7.485043     0.562032     7.493712
H    -8.108286     0.744084     6.789310
H    -2.742341    -9.883047    -0.819422
O    -2.680387    -8.941783    -0.981929
H    -3.586254    -8.575488    -0.740855
H    -10.081771     3.055876    -4.906626
O    -10.195575     2.137518    -4.627131
H    -10.411865     2.220757    -3.677284
H    -2.069964    -3.022925     4.610977
O    -2.944359    -3.463904     4.682177
H    -2.938268    -4.082780     3.926794
H    -0.177338    -7.983717     2.490546
O     0.649194    -7.772205     2.937656
H     1.367346    -8.068244     2.350779
H     6.704747    -2.363690     6.382264
O     7.154449    -3.074332     5.920287
H     6.524767    -3.809500     5.883696
H    -5.273893    -1.999849     6.940661
O    -5.951340    -1.503691     6.456365
H    -5.934874    -1.881949     5.547683
H     0.825669     3.015969    -7.128338
O     1.743037     2.683166    -7.190050
H     1.723764     1.933171    -7.812331
H    -3.965750     8.760456     6.649111
O    -3.964929     8.756912     5.691747
H    -4.089069     7.828776     5.425485
H    -2.077703     10.301419    -2.765173
O    -2.979627     10.483210    -3.066119
H    -2.908287     11.114113    -3.781757
H     9.409073    -4.051571     4.035678
O     9.130744    -4.728776     4.659904
H     8.700977    -4.255413     5.383249
H    -0.740678    -6.014551    -5.838545
O    -0.036619    -6.580278    -5.505304
H     0.798527    -6.118201    -5.723585
H     1.811573     8.272515     0.637548
O     1.507513     8.593367    -0.239979
H     2.321391     8.630032    -0.771682
H     3.483703     2.913683    -6.680228
O     4.312300     2.624882    -6.271519
H     4.067976     2.353720    -5.361516
H     3.718474     7.120050    -1.256305
O     3.924315     8.055482    -1.471480
H     4.292149     7.997809    -2.365253
H     4.382078    -0.023551    -7.925116
O     4.759813     0.124265    -7.056323
H     4.577484     1.056557    -6.813601
H     6.020785     1.931830    -0.494047
O     6.585768     2.123537    -1.256440
H     7.410750     1.645003    -1.061682
H     6.682925    -8.434479    -1.605544
O     7.318176    -8.224941    -2.343095
H     7.685617    -9.059492    -2.629107
H    -5.307681    -5.807546    -5.403331
O    -5.924682    -5.136732    -5.721104
H    -5.374200    -4.367715    -5.956616
H     0.673767     7.183265     7.577175
O    -0.227535     7.210926     7.937323
H    -0.783547     7.223469     7.120048
H    -8.905135    -2.854338    -4.100481
O    -9.427056    -2.046132    -3.935808
H    -9.140932    -1.382103    -4.566629
H    -2.413387    -5.999953    -2.139559
O    -3.292441    -5.716108    -2.407840
H    -3.479839    -6.092237    -3.292619
H    -2.992069    -5.918955    -5.405554
O    -3.592300    -6.527917    -4.933061
H    -3.109772    -7.347245    -4.763170
H    -1.277996     3.763933    -7.014254
O    -0.816647     2.973836    -6.687521
H    -1.035270     2.198444    -7.259006
H    -0.158414     0.390723    -8.239241
O    -1.051928     0.591734    -7.908609
H    -1.119471     0.101549    -7.062686
H    -10.435621     4.034442    -2.745179
O    -10.501789     3.255889    -2.176819
H    -9.671787     3.231445    -1.668473
H     4.570223     4.082248     1.699499
O     4.363931     3.161725     1.981114
H     5.079386     2.585885     1.698721
H     6.473824     1.390049    -4.237084
O     6.172477     0.766551    -3.541828
H     6.202676     1.263849    -2.699031
H     9.626669    -2.225435    -0.942309
O     9.902423    -2.012871    -1.842810
H     9.101463    -1.675364    -2.286152
H     9.962327    -3.324190    -3.109502
O     9.695706    -3.977670    -3.783263
H     9.300771    -3.471675    -4.503986
H    -7.700135    -8.589262    -1.653449
O    -6.963037    -7.994708    -1.785083
H    -7.341237    -7.081887    -1.776075
H     4.144657     6.072078    -3.845346
O     4.805627     6.773883    -3.763296
H     5.642058     6.320697    -3.624758
H     0.093690    -8.186082    -5.209578
O     0.118007    -9.168684    -5.075989
H     0.269101    -9.533966    -5.947806
H    -2.335226    -8.685695    -2.707684
O    -2.102763    -8.423989    -3.618258
H    -1.455346    -9.042350    -3.975735
H     2.182609    -10.827046    -3.485828
O     2.136055    -9.872475    -3.463956
H     1.349850    -9.603353    -3.989739
H     6.821658     3.322032    -4.596077
O     6.880269     2.642806    -5.295987
H     6.085864     2.773961    -5.835882
H    -3.563274    -3.715883     7.720415
O    -3.679102    -2.929253     7.188966
H    -3.428079    -3.169571     6.270897
H    -0.646848    -3.385695    -6.725629
O    -0.018206    -2.653178    -6.743335
H    -0.494293    -1.881370    -6.388250
H     0.639656     0.473541     8.741074
O     0.647488    -0.243015     8.102463
H    -0.274633    -0.532528     8.015663
H    -5.853102     7.351696    -4.267239
O    -6.359939     6.735865    -4.827858
H    -6.637784     5.999186    -4.240065
H    -4.296223     9.088898    -3.286849
O    -4.832995     8.294036    -3.177013
H    -4.421573     7.813890    -2.440144
H    -9.726670     5.775623    -4.660698
O    -10.259268     4.969943    -4.497754
H    -11.141307     5.171925    -4.811767
H     2.759668     6.524684     6.115675
O     1.799632     6.620613     6.214732
H     1.456600     5.706925     6.113634
H     4.788372     8.546426     0.053995
O     5.107343     8.549746     0.974424
H     5.514149     7.685619     1.106885
H     4.138755    -7.435990    -4.341524
O     3.380702    -7.722941    -4.882806
H     3.101536    -8.563199    -4.504295
H     0.364619     8.663173     4.207416
O     1.043458     8.019340     3.980408
H     1.270429     7.527834     4.795694
H     5.221541     4.184942    -3.180063
O     6.183131     4.155328    -3.128274
H     6.392855     3.575932    -2.379100
H    -2.578949    -1.537190     7.567869
O    -2.069047    -0.743336     7.786568
H    -2.695234    -0.116605     8.159337
H    -9.047818     7.915460    -4.163585
O    -8.983871     7.330486    -4.919993
H    -8.025651     7.167458    -5.053187
H     3.531695    -8.980035     1.095202
O     2.854260    -8.348678     1.342969
H     3.327919    -7.542145     1.621290
H     3.570952     8.173807     1.801296
O     2.781494     7.609347     1.915528
H     2.335200     7.846546     2.741169
N    -3.755847     1.442408    -7.077846
H    -4.644936     1.255435    -7.391501
H    -3.169583     1.035456    -7.727315
