603

H     0.201387     3.024944    -0.679243
O     0.723578     2.356368    -1.172721
H     1.662218     2.482411    -0.896997
H    -0.091759    -1.318971     3.143140
O     0.301910    -0.618470     2.600251
H    -0.173985     0.195670     2.834592
H    -2.399903     2.409838    -0.542693
O    -2.192462     1.937621     0.281137
H    -2.208503     0.990202     0.054651
H    -4.673487     0.547353     2.168859
O    -4.993076    -0.385373     2.178870
H    -4.485585    -0.862670     1.514265
H     0.053908    -0.317437     0.945259
O    -0.142794    -0.077966     0.018866
H     0.200719     0.817332    -0.099764
H    -0.177662    -3.590222     3.765473
O    -0.455104    -2.760024     4.187247
H     0.190529    -2.592849     4.890294
H    -4.890669     2.532719     1.319199
O    -4.253713     2.120073     1.934462
H    -3.409818     2.101477     1.423461
H    -3.243747     3.902058    -2.217671
O    -2.508200     3.302773    -1.986290
H    -2.148420     3.015797    -2.845711
H    -0.142025    -3.813255     0.491906
O     0.198988    -2.995860     0.910503
H    -0.587625    -2.508904     1.222500
H    -2.393121    -1.543933     2.457070
O    -2.205825    -2.009378     1.615530
H    -2.458603    -1.419188     0.886649
H     2.063768    -1.453573    -1.125335
O     2.293044    -1.707548    -0.207691
H     1.502671    -2.135268     0.173803
H    -1.397255     1.818006     1.906340
O    -1.493121     1.419104     2.781344
H    -1.477063     2.130062     3.447747
H     0.196994    -2.708968    -1.579354
O    -0.557318    -2.095451    -1.634179
H    -0.376884    -1.370538    -0.998912
H    -3.449863    -2.921202    -0.406951
O    -2.736911    -3.416382    -0.831013
H    -2.021467    -2.789699    -1.044199
H     2.759527     0.110866     2.932809
O     2.856255    -0.073232     3.894444
H     2.949096     0.818710     4.300656
H    -3.522114     6.382293    -0.545349
O    -3.281163     7.045452    -1.244094
H    -3.138106     7.889468    -0.772200
H     3.892980     0.566030     1.187999
O     2.941711     0.386610     1.301808
H     2.703936    -0.364667     0.721070
H    -5.784506     0.852129    -1.620209
O    -4.873527     1.176788    -1.491470
H    -4.983223     2.004830    -0.978925
H    -1.211803     5.389635     2.210423
O    -1.838296     4.644081     2.091570
H    -1.918198     4.224101     2.953260
H     3.490801     2.747248     0.429920
O     3.244267     2.706681    -0.509714
H     3.575740     1.863979    -0.861107
H     1.477082    -4.704464    -2.260774
O     1.541170    -3.926661    -1.688235
H     2.338024    -3.467604    -2.036623
H    -0.924801    -0.086173    -2.555230
O    -0.289876     0.566122    -2.878022
H    -0.028572     1.146528    -2.139842
H     1.680772    -4.696379    -0.188931
O     1.785765    -5.334180     0.552819
H     1.320488    -6.144247     0.255167
H    -1.234810    -3.265974    -2.892105
O    -1.065444    -3.948053    -3.555222
H    -0.938111    -4.796831    -3.089068
H    -2.789682     3.301012     4.698916
O    -1.808471     3.296086     4.666513
H    -1.517862     2.892178     5.502518
H     0.957755     5.019235     4.079530
O     0.012066     5.253376     4.130590
H    -0.461896     4.450684     4.386281
H    -1.748951    -4.654614    -0.387393
O    -0.982556    -5.192203    -0.103094
H    -1.327009    -5.882869     0.474787
H    -3.908169     5.838428    -2.601930
O    -4.260431     5.005807    -2.933878
H    -4.103469     4.972174    -3.901770
H    -2.451030    -3.694269     1.919133
O    -2.474953    -4.598315     2.294455
H    -1.536178    -4.842876     2.432794
H    -4.704736    -2.972360    -2.917959
O    -3.853043    -3.208572    -3.323559
H    -3.522659    -4.000548    -2.855955
H     0.326141     1.361746     4.611749
O     0.833507     2.121713     4.279779
H     0.883441     2.779056     4.988065
H    -4.667026    -5.164226    -1.590804
O    -5.374407    -4.817341    -1.019878
H    -5.159515    -5.165075    -0.134173
H     2.310517    -6.488612    -4.050646
O     1.971954    -6.160098    -3.197543
H     2.403035    -6.736744    -2.534219
H     0.457941    -3.380879    -4.016412
O     1.261836    -3.014259    -4.437377
H     0.944990    -2.641061    -5.286047
H     1.946342    -1.769210     2.975893
O     2.099977    -2.700062     2.757638
H     1.414982    -2.911786     2.089078
H    -3.021133    -1.804489    -3.224520
O    -2.598098    -0.919006    -3.156858
H    -3.251303    -0.271276    -3.476957
H    -3.189510     4.974363     1.075945
O    -3.969790     5.350066     0.620799
H    -4.384736     5.907876     1.327169
H     0.868339     2.240535     2.589948
O     0.970681     2.237181     1.618889
H     1.696724     1.612770     1.454920
H     0.195966     5.650982    -0.755034
O     0.719667     6.312607    -1.262043
H     0.862778     7.111139    -0.704706
H     0.346007     7.024314     2.596569
O    -0.015763     6.645939     1.778049
H     0.647233     5.974336     1.516537
H    -2.493627     0.208826     3.330973
O    -2.718547    -0.605413     3.834257
H    -1.958786    -0.647857     4.456905
H    -0.911380     0.539094     6.018521
O    -0.637789     0.020356     5.243516
H     0.074375    -0.585110     5.529957
H     0.684494    -5.006290     1.967176
O     0.140344    -5.115547     2.770331
H     0.281538    -6.038172     3.038694
H    -2.183044    -7.988492     0.466486
O    -1.786463    -7.531132     1.238560
H    -2.514732    -7.190390     1.761427
H    -0.368531     6.861765    -2.321240
O    -1.113304     7.284128    -2.821043
H    -1.904395     7.158581    -2.258848
H    -1.113299     4.304446     0.572735
O    -0.738920     4.366261    -0.322692
H    -1.444915     4.126714    -0.956602
H    -4.417608     2.744982     3.497530
O    -4.417874     2.913841     4.462373
H    -4.503404     2.030336     4.869931
H     2.000122    -3.601370     4.235565
O     1.933116    -4.073820     5.088369
H     2.441397    -3.539844     5.720204
H     4.670902    -3.213849     0.835900
O     4.512547    -3.135492    -0.130794
H     3.654505    -2.656912    -0.214752
H    -2.730156    -0.747042    -1.363531
O    -3.059984    -0.478409    -0.489608
H    -3.857484     0.051368    -0.697755
H    -1.618354    -0.756422    -4.641328
O    -1.110368    -0.540020    -5.444355
H    -0.399280     0.054143    -5.157244
H     1.788493    -1.720598    -3.382825
O     1.881215    -0.974562    -2.758819
H     1.105373    -0.395742    -2.890480
H     3.643338    -3.141658     2.545353
O     4.601998    -3.372511     2.473757
H     4.653482    -4.333356     2.598078
H     3.398814    -6.141293     3.112755
O     3.757196    -5.937560     2.214286
H     3.020424    -5.592329     1.669932
H    -3.341349     1.618154    -4.187576
O    -4.187889     1.149290    -3.998925
H    -4.406340     1.294344    -3.042441
H    -5.081387     4.152245     0.058486
O    -5.522128     3.287474    -0.047117
H    -6.451649     3.409734    -0.330246
H     6.725191    -1.202750    -1.359401
O     5.952185    -1.051775    -0.809023
H     5.530899    -1.918914    -0.613121
H     4.582180    -3.182545    -2.474090
O     3.715687    -3.008264    -2.891749
H     3.718971    -3.626546    -3.648348
H     4.411802    -2.320288     5.618957
O     4.066734    -2.786018     6.411043
H     4.399283    -3.691890     6.328171
H    -0.756779     6.324602     5.077845
O    -1.353153     6.900960     5.615801
H    -1.363766     7.778747     5.175701
H     4.692186    -0.151876    -1.465020
O     3.926437     0.392675    -1.728405
H     3.233256    -0.206045    -2.060306
H    -0.734284     4.524768    -4.037564
O    -1.515440     5.069940    -4.246002
H    -1.362545     5.935622    -3.821945
H     0.662693     3.199630    -2.658171
O     0.671886     3.577709    -3.566139
H     0.718948     2.815026    -4.152671
H    -5.408344    -5.174859     1.779575
O    -4.718895    -5.784355     1.433537
H    -3.869951    -5.376674     1.692421
H     7.875637    -1.709225    -4.029809
O     7.617227    -1.396669    -3.130121
H     7.132340    -0.551629    -3.286031
H     3.689966    -5.080005    -5.298197
O     4.452371    -4.708469    -4.815684
H     4.834499    -5.421120    -4.270183
H    -3.800715     0.012480     4.922239
O    -4.402024     0.476688     5.554411
H    -5.063913    -0.180450     5.844166
H     3.442733    -5.957573    -0.529717
O     4.316449    -5.711224    -0.845647
H     4.394344    -4.749437    -0.700128
H     4.997795    -0.348239    -4.159067
O     4.461226    -1.057407    -4.551153
H     4.133092    -1.641750    -3.834881
H    -1.171633     1.573935    -3.942227
O    -1.820158     2.196449    -4.328232
H    -1.460140     2.528652    -5.173310
H     4.865137    -6.337381    -2.323552
O     5.199745    -6.660211    -3.189312
H     6.015436    -7.144712    -3.001688
H     8.724674    -5.115468    -2.918545
O     8.031488    -5.531966    -2.361830
H     8.063422    -6.489304    -2.465215
H     2.339450     4.706465     0.456562
O     1.758715     4.688732     1.226621
H     1.399311     3.769048     1.302428
H    -4.437138    -2.638361     4.213203
O    -5.330392    -2.297467     4.008629
H    -5.190464    -1.514523     3.436174
H    -5.865426    -3.190470     1.295497
O    -6.330103    -3.747584     1.963393
H    -6.140273    -3.313190     2.814647
H     1.674434     3.447061     6.864346
O     1.053400     3.964814     6.330368
H     0.269953     4.118827     6.901008
H     4.980902    -2.194085     3.614569
O     5.002056    -1.476524     4.279594
H     4.191707    -0.918416     4.122472
H     2.359334    -5.598243     4.826796
O     2.738833    -6.481820     4.566422
H     1.993403    -7.061618     4.387552
H     2.249424    -4.516730    -6.800581
O     2.077554    -5.006218    -5.986228
H     1.813663    -4.316104    -5.329573
H     6.421840    -4.125005    -0.505457
O     7.173973    -4.529597    -0.041843
H     7.681140    -4.952892    -0.762387
H    -1.736395     4.475454     7.698793
O    -0.838086     4.570934     8.086032
H    -0.654862     5.529626     8.111946
H    -5.105560     5.707243    -5.602431
O    -4.499913     4.942223    -5.622903
H    -3.741058     5.155767    -6.187116
H     3.280782    -2.528440    -8.442146
O     3.190062    -3.061881    -7.641712
H     4.066023    -3.041050    -7.211249
H    -0.645239     8.825200    -2.272309
O    -0.521271     9.652667    -1.752092
H     0.239732     9.475717    -1.174408
H     2.046717    -0.932527     5.206890
O     1.471054    -1.457086     5.792672
H     1.565544    -1.114108     6.690671
H     5.201040    -2.034911    -5.694233
O     5.546262    -2.801085    -6.216991
H     5.269896    -3.591288    -5.700968
H     5.666137    -5.242585     4.680660
O     5.142930    -5.157648     5.506750
H     4.420099    -5.787891     5.418956
H    -3.992131     1.138134     6.995980
O    -3.800468     1.612050     7.840928
H    -4.675991     1.999446     8.100879
H    -1.837288     9.613422    -0.740599
O    -2.698801     9.488274    -0.267710
H    -3.307913     10.118656    -0.655750
H    -5.942085     4.701209    -2.947720
O    -6.850591     4.584262    -3.293188
H    -6.760538     3.882824    -3.971282
H     0.066838    -7.071699    -1.158689
O     0.536157    -7.503803    -0.412880
H    -0.140034    -7.709390     0.235342
H    -7.634791     3.805380    -1.986640
O    -7.899014     3.217743    -1.248038
H    -7.757058     2.309404    -1.588800
H     3.950829    -0.919463     6.985000
O     3.961641     0.044720     6.977659
H     4.775189     0.333383     6.547573
H     2.264107     5.785850    -1.173776
O     3.198828     5.491069    -1.058491
H     3.375538     4.951612    -1.852135
H     6.526228    -5.953397     0.667372
O     6.155295    -6.689333     1.199788
H     5.250852    -6.410682     1.425358
H    -3.879604     4.719999     7.775353
O    -3.313144     4.256870     7.116453
H    -3.508524     3.313703     7.225461
H     5.733865    -7.966639     0.128240
O     5.446561    -8.651467    -0.511766
H     4.617197    -8.325194    -0.905238
H    -0.574274     2.024955     7.689075
O    -1.206739     1.963065     6.953095
H    -2.075981     1.822590     7.348300
H    -6.393237    -0.113848     1.045117
O    -6.712729    -0.197920     0.131915
H    -7.632952    -0.463536     0.149094
H    -5.389363    -3.055437    -0.611119
O    -5.137884    -2.358906     0.020595
H    -5.702991    -1.581798    -0.165627
H     4.320441     5.560514     0.328931
O     4.653156     5.659326     1.234771
H     3.958976     6.170291     1.686721
H    -9.053763    -1.727674    -2.276310
O    -8.506963    -1.528488    -1.488924
H    -8.638155    -2.264478    -0.851556
H    -5.517645     3.485200    -5.537541
O    -6.037034     2.774913    -5.124652
H    -5.372149     2.187637    -4.710749
H     3.177726    -0.894341    -5.657578
O     2.322346    -1.011442    -6.125260
H     2.406816    -1.860065    -6.599630
H     8.111172    -1.366535    -6.024923
O     8.116835    -2.231130    -5.569629
H     7.260167    -2.629014    -5.821879
H     7.623287     0.975540    -6.302793
O     7.433176     0.128402    -6.717875
H     6.451792     0.080448    -6.755443
H    -7.879746    -3.679873     0.906247
O    -8.561645    -3.571895     0.225691
H    -8.458307    -4.323015    -0.386510
H    -2.398918     8.734120     1.295624
O    -2.250727     8.144149     2.048058
H    -1.481406     7.589645     1.825752
H    -4.444075     6.434616     3.493020
O    -4.612205     6.862040     2.636801
H    -3.847307     7.446524     2.499072
H     3.404671     3.437039    -3.573267
O     3.253238     4.406511    -3.478738
H     2.288701     4.473388    -3.587867
H    -6.123126    -1.593794    -3.460137
O    -6.209652    -2.174599    -2.677491
H    -6.992941    -1.864747    -2.169417
H     6.452990     1.020859     4.744977
O     6.059139     1.559761     5.447958
H     6.249808     2.478329     5.158403
H     1.364754     1.720521    -5.824272
O     1.167335     1.124048    -5.071283
H     1.529916     0.260656    -5.341458
H    -2.508561     2.947959     10.478118
O    -2.298271     2.040136     10.204064
H    -2.895033     1.843009     9.470260
H     7.611555    -0.527149     3.088356
O     6.862673     0.050119     3.256911
H     6.168448    -0.549309     3.634319
H    -5.970261    -7.944683    -0.512399
O    -5.102692    -8.006647    -0.040802
H    -5.063423    -7.238878     0.558774
H    -5.180317    -0.106653    -4.729106
O    -5.799021    -0.816775    -4.969921
H    -6.635486    -0.372596    -5.169629
H     1.891364    -0.198650    -7.518580
O     1.691878     0.274829    -8.362137
H     2.268774    -0.130669    -9.014895
H     4.873778    -1.397572    -9.304672
O     3.949668    -1.165895    -9.588200
H     3.930605    -1.283370    -10.537307
H     7.541524    -2.601478     4.201785
O     7.689752    -2.636238     3.242474
H     7.195262    -3.425779     2.968696
H     6.692600    -5.921082     2.680605
O     6.755579    -5.246849     3.382681
H     7.630507    -5.335380     3.801606
H    -1.815541     8.940634     3.500766
O    -1.568689     9.243559     4.399939
H    -2.417933     9.377297     4.854197
H    -7.388166     1.585754    -5.265974
O    -7.965171     0.842667    -5.022691
H    -8.866054     1.244486    -4.947726
H     6.926855    -1.093885    -8.401256
O     6.343533    -1.813097    -8.666906
H     6.113458    -2.263805    -7.835978
H    -1.661418     6.248592    -7.022424
O    -2.061892     5.424058    -6.750422
H    -1.814898     5.291241    -5.786664
H    -0.015404     3.292041     9.021952
O     0.179045     2.371494     9.276175
H    -0.620646     2.108474     9.781002
H     6.744355    -2.798633    -2.704664
O     6.211386    -3.541885    -2.365630
H     6.678213    -4.353708    -2.612117
H    -4.086953    -3.062900    -4.960818
O    -4.241096    -2.948548    -5.925245
H    -4.785426    -2.153446    -5.980643
H     1.962326     2.160673     8.465523
O     2.627268     2.272704     7.776465
H     3.047826     1.401711     7.660416
H    -6.924185    -5.200860    -1.426241
O    -7.851836    -5.440111    -1.658326
H    -7.974698    -5.057534    -2.551706
H    -3.833633     5.251339     5.692681
O    -3.798417     6.020449     5.102905
H    -2.863902     6.312638     5.198722
H    -7.891937     0.103025    -1.984613
O    -7.399464     0.825700    -2.396361
H    -7.626302     0.816925    -3.350025
H     5.827133     0.109325     0.415222
O     5.605978     0.830587     1.036743
H     6.114550     0.632991     1.850175
H    -6.228900     3.309972     7.385303
O    -6.103619     2.790289     8.213474
H    -6.705479     2.030510     8.123354
H     2.249429    -8.084925    -0.857275
O     2.928282    -8.072442    -1.552001
H     2.703266    -8.785703    -2.166283
H    -2.754558    -3.952456    -6.212810
O    -2.003608    -4.521659    -5.980202
H    -1.726851    -4.231867    -5.082576
H    -5.653144     3.761610     5.300008
O    -6.302514     4.158727     5.916592
H    -6.136306     5.102347     5.905216
H    -1.039668    -7.113807    -3.188187
O    -0.571471    -6.444759    -2.655422
H     0.339645    -6.378919    -3.028332
H     4.431347     1.992899     5.132718
O     3.490501     2.235003     5.011659
H     3.105005     2.250419     5.893030
H     4.100778     4.632719     6.308079
O     4.183939     5.363729     5.691320
H     3.616998     5.125470     4.919229
H     2.757348     3.599602     3.926531
O     2.581940     4.540284     3.761452
H     2.464300     4.640291     2.794964
H     9.385704     0.183829    -1.062257
O     8.579489     0.348384    -0.569555
H     8.400741    -0.470759    -0.077929
H    -2.114826     5.305866     10.649164
O    -2.838688     4.678732     10.878662
H    -3.057861     4.855329     11.793768
H     7.955565    -3.034879     0.329581
O     8.378322    -2.189495     0.586585
H     8.311012    -2.185969     1.548803
H     5.363962     3.641363     3.532709
O     6.019822     3.904624     4.200160
H     5.607976     4.622873     4.702250
H    -4.222182     5.014157     9.779748
O    -4.854038     5.167290     9.057084
H    -5.467420     4.419941     9.052906
H    -7.024253    -3.463689    -3.505823
O    -7.643834    -4.076398    -3.954760
H    -7.122803    -4.515847    -4.658520
H     0.015218     6.109034     10.773718
O    -0.848206     6.442854     10.525647
H    -0.730112     6.874131     9.659990
H     2.589061     1.488799    -4.104866
O     3.467781     1.839454    -3.864589
H     3.785955     1.322598    -3.094319
H    -6.994179    -0.217103     7.203100
O    -7.501673     0.561878     7.483973
H    -8.122783     0.748479     6.778886
H    -2.951818    -9.628885    -0.724468
O    -2.710480    -8.760787    -1.096759
H    -3.570059    -8.291909    -1.026988
H    -10.063939     3.100127    -4.915436
O    -10.183702     2.182747    -4.635540
H    -10.400419     2.266792    -3.685984
H    -2.091907    -3.031515     4.601531
O    -2.968468    -3.469105     4.668541
H    -2.961054    -4.086119     3.911313
H    -0.210131    -7.992765     2.471240
O     0.616368    -7.780910     2.918889
H     1.333481    -8.080971     2.333033
H     6.680167    -2.406469     6.393915
O     7.129003    -3.116575     5.930306
H     6.497423    -3.849934     5.889543
H    -5.297394    -2.005485     6.927308
O    -5.972436    -1.506101     6.442858
H    -5.954962    -1.881708     5.533275
H     0.844001     3.034185    -7.115024
O     1.760928     2.701436    -7.170337
H     1.746331     1.954521    -7.796908
H    -3.954164     8.752182     6.672734
O    -3.951411     8.751157     5.715364
H    -4.078072     7.824153     5.446419
H    -2.041421     10.316810    -2.732439
O    -2.942210     10.500925    -3.035332
H    -2.867945     11.135551    -3.747377
H     9.384814    -4.094821     4.047280
O     9.103456    -4.772955     4.669108
H     8.673218    -4.300580     5.392791
H    -0.749814    -5.992583    -5.856738
O    -0.047914    -6.560825    -5.523189
H     0.789156    -6.101264    -5.738478
H     1.833993     8.264474     0.672233
O     1.532628     8.588149    -0.205340
H     2.348115     8.624756    -0.734688
H     3.505155     2.924467    -6.658819
O     4.331550     2.631997    -6.248744
H     4.084455     2.357465    -5.340596
H     3.741822     7.111965    -1.220697
O     3.950070     8.047471    -1.432800
H     4.320500     7.991446    -2.325632
H     4.396857    -0.013172    -7.910986
O     4.773120     0.131211    -7.040906
H     4.593255     1.063221    -6.796402
H     6.025999     1.913216    -0.469615
O     6.592847     2.106303    -1.230291
H     7.415938     1.624230    -1.035877
H     6.656397    -8.450864    -1.614143
O     7.294695    -8.240998    -2.349159
H     7.657962    -9.076267    -2.638452
H    -5.312180    -5.774311    -5.432827
O    -5.931014    -5.101048    -5.741670
H    -5.380124    -4.332497    -5.978518
H     0.678154     7.156724     7.605904
O    -0.223849     7.186072     7.964154
H    -0.778115     7.203066     7.145878
H    -8.907792    -2.813758    -4.124853
O    -9.426454    -2.004478    -3.956226
H    -9.138783    -1.338952    -4.584974
H    -2.427288    -5.984804    -2.160980
O    -3.310364    -5.707816    -2.425140
H    -3.489050    -6.067906    -3.319398
H    -3.004618    -5.892056    -5.425514
O    -3.605664    -6.500584    -4.953096
H    -3.122334    -7.321910    -4.788944
H    -1.381810     3.733461    -6.985745
O    -0.843764     2.976140    -6.714879
H    -1.081471     2.192203    -7.266188
H    -0.201066     0.423246    -8.221421
O    -1.097021     0.660120    -7.939003
H    -1.274343     0.135981    -7.141919
H    -10.419589     4.076056    -2.749996
O    -10.489402     3.296727    -2.183038
H    -9.660662     3.268032    -1.673201
H     4.577601     4.061555     1.726859
O     4.366461     3.140843     2.003959
H     5.081129     2.563306     1.722886
H     6.485229     1.382688    -4.213829
O     6.179478     0.758480    -3.521189
H     6.210550     1.252596    -2.676602
H     9.619108    -2.253738    -0.923980
O     9.897731    -2.038082    -1.822863
H     9.098625    -1.697495    -2.267112
H     9.956172    -3.346172    -3.093997
O     9.688875    -3.996624    -3.770329
H     9.297092    -3.487237    -4.490358
H    -8.171641    -8.320704    -0.870868
O    -7.442399    -7.986248    -1.400632
H    -7.685570    -7.036425    -1.558630
H     4.170429     6.070544    -3.812558
O     4.832962     6.770218    -3.725805
H     5.667930     6.314198    -3.587612
H     0.083124    -8.166927    -5.237179
O     0.107498    -9.150172    -5.107986
H     0.254015    -9.513376    -5.981140
H    -2.264026    -8.735698    -2.869491
O    -2.051373    -8.397609    -3.759723
H    -1.370319    -8.954976    -4.163308
H     2.148194    -10.823822    -3.500379
O     2.115149    -9.868374    -3.489543
H     1.328675    -9.595517    -4.012332
H     6.840136     3.315008    -4.565968
O     6.897866     2.637690    -5.267692
H     6.105362     2.773091    -5.809242
H    -3.592565    -3.728797     7.705855
O    -3.707001    -2.941033     7.175749
H    -3.453520    -3.179374     6.257789
H    -0.646019    -3.357743    -6.735385
O    -0.014582    -2.627387    -6.741427
H    -0.494955    -1.851384    -6.399169
H     0.619835     0.443308     8.748754
O     0.626767    -0.270684     8.107305
H    -0.295857    -0.557600     8.017852
H    -5.820824     7.382529    -4.256035
O    -6.324538     6.765562    -4.818473
H    -6.613901     6.034608    -4.228559
H    -4.262953     9.112641    -3.263534
O    -4.800688     8.317653    -3.158872
H    -4.394267     7.836254    -2.420078
H    -9.701485     5.820877    -4.657954
O    -10.237000     5.017201    -4.496391
H    -11.116572     5.220687    -4.816392
H     2.764847     6.495999     6.147028
O     1.804831     6.594722     6.243716
H     1.459304     5.682308     6.139596
H     4.813280     8.530684     0.096296
O     5.129414     8.529742     1.017668
H     5.534067     7.664298     1.148148
H     4.121740    -7.435896    -4.351654
O     3.363864    -7.716648    -4.896254
H     3.080593    -8.558064    -4.523239
H     0.381081     8.648386     4.240518
O     1.057617     8.002515     4.012462
H     1.281910     7.508074     4.826780
H     5.239576     4.177577    -3.150348
O     6.200876     4.145654    -3.096128
H     6.407462     3.562571    -2.348895
H    -2.602839    -1.553409     7.561830
O    -2.091015    -0.761696     7.783684
H    -2.715688    -0.134394     8.157973
H    -9.013560     7.958908    -4.154954
O    -8.950736     7.374633    -4.912006
H    -7.993800     7.208854    -5.046227
H     3.495640    -8.996714     1.078128
O     2.822446    -8.361096     1.326234
H     3.300146    -7.558699     1.608211
H     3.590551     8.156137     1.839255
O     2.798472     7.594462     1.949710
H     2.351807     7.830069     2.775621
N    -4.061770    -10.559716     0.513752
H    -4.620793    -11.295722     0.250629
H    -4.649352    -9.778205     0.505256
