36

H    -0.820891     6.263807     4.985969
O    -1.433774     6.855281     5.498233
H    -1.367553     7.720889     5.030001
H    -1.708269     4.347948     7.631758
O    -0.849432     4.501190     8.091307
H    -0.622299     5.445253     8.003118
H    -3.858896     4.551956     7.605055
O    -3.262371     4.046735     7.015957
H    -3.466925     3.122234     7.257889
H    -1.738174     8.969906     3.436642
O    -1.384431     9.306719     4.289274
H    -2.179474     9.432641     4.848927
H    -3.907572     5.051317     5.315776
O    -3.993851     5.997391     5.137431
H    -3.070031     6.320719     5.254956
H    -5.716352     3.634836     5.350058
O    -6.418274     4.014676     5.920326
H    -6.197519     4.951016     5.965687
H    -2.088661     5.266824     10.615638
O    -2.793702     4.626976     10.851500
H    -2.925270     4.713765     11.798452
H    -4.241735     4.921717     9.764917
O    -4.853250     5.110751     9.025650
H    -5.459896     4.352669     8.985765
H    -0.841307     7.444082     10.854822
O    -1.186702     6.809666     10.223015
H    -0.689286     6.973581     9.381148
H    -3.473850     8.666502     6.733638
O    -3.648513     9.117124     5.885497
H    -4.193756     8.482200     5.406831
H     0.704081     7.061538     7.426252
O    -0.194411     7.128128     7.807650
H    -0.762861     7.135784     6.986103
N    -3.434995     7.666982     8.341249
H    -4.066505     6.941179     8.439499
H    -2.770684     7.518562     9.029152
