39
Coordinates from ORCA-job grain_mol_opt.QMRegion
  H   -3.76063029093073      0.02232546919833      4.86963925811178
  O   -4.35078059087817      0.47708030675134      5.52678765909018
  H   -5.04830158792402     -0.16618279491029      5.72977519513760
  H   -4.01435061094606      1.24074537498458      6.99794643529242
  O   -3.89186503113049      1.91189804989652      7.71410443283273
  H   -4.80153435311291      2.22246807415425      7.94858655187001
  H   -3.87140901836244      4.93341901954940      7.77430458619128
  O   -3.30223837795494      4.49080810193288      7.10358858043317
  H   -3.53201920409612      3.54191811225311      7.15629958860502
  H   -0.59948718820451      2.14453740627095      7.63720346890113
  O   -1.20748628400404      1.98094531038223      6.89728806920736
  H   -2.05125317680760      1.75893269183132      7.30297428289207
  H   -2.68218020445871      3.04095479395456     10.44612413677662
  O   -2.50087517510736      2.13104791905871     10.14422872729739
  H   -2.97718878758726      2.06198176411120      9.29152084005114
  H   -0.13334599904980      3.41455292594063      8.98505648205763
  O   0.15255760815776      2.51378860268811      9.25463741299607
  H   -0.61998438943525      2.20223773373082      9.76136939711515
  H   -6.43164581322384      3.41086230843691      7.32598459281009
  O   -6.25261475859098      3.00080228302047      8.21091485257638
  H   -6.82217739593248      2.22373532794750      8.28590758135398
  H   -6.49759657157230     -0.45485919136349      7.77952623772073
  O   -6.58760350098203      0.08546124884438      8.59065630242589
  H   -7.28238858689102     -0.35809987042157      9.08628224770447
  H   -5.19359903600386     -2.11652527783757      6.82145573463311
  O   -5.95457108370082     -1.60913495344325      6.47164621003552
  H   -6.01933374127648     -1.93224900627345      5.54671380346001
  H   -3.56498796233627     -3.79494842239057      7.61625322222044
  O   -3.57692945640336     -2.99366360015927      7.08529531561224
  H   -3.36625329794512     -3.29051319084601      6.17009038788102
  H   0.74037355637700      0.48646604607919      8.39762846326399
  O   0.76174692980242     -0.45800000034426      8.21331405256959
  H   -0.18452881227084     -0.69623560151296      8.16277941717099
  H   -2.38433062240367     -1.55875369891843      7.57187977094208
  O   -2.02092761781331     -0.76339654188927      7.98783629697989
  H   -2.61333343084531     -0.64428138741165      8.75563374644302
  O   -3.90469570563914     -0.42222621253165     10.08495504984661
  H   -3.58719954969443      0.41951775540727     10.45013080428052
  H   -4.73060672689866     -0.19344714554081      9.63086703564768
