36

H    -5.028210     5.728841    -5.596054
O    -4.479880     4.918400    -5.636119
H    -3.686295     5.114806    -6.169369
H    -5.894217     4.665866    -2.943655
O    -6.804237     4.522886    -3.292722
H    -6.634793     3.802966    -3.945200
H    -7.591027     3.730945    -1.928539
O    -7.948889     3.212181    -1.176526
H    -7.802243     2.281744    -1.469032
H    -5.401479     3.391800    -5.574198
O    -5.971217     2.689363    -5.199884
H    -5.327155     2.095804    -4.744279
H    -7.446869     1.451907    -5.244194
O    -7.970629     0.710356    -4.906128
H    -8.917129     1.049154    -4.895293
H    -7.859495    -0.040022    -1.859304
O    -7.431664     0.742315    -2.245046
H    -7.619384     0.716180    -3.213326
H    -10.024667     2.556801    -5.467943
O    -10.308318     1.836851    -4.872340
H    -10.391484     2.292313    -4.002782
H    -10.292356     4.278324    -3.008018
O    -10.429039     3.417466    -2.582250
H    -9.677799     3.335467    -1.963086
H    -5.719649     7.378368    -4.205123
O    -6.259513     6.815176    -4.804113
H    -6.548641     6.058510    -4.240000
H    -9.587811     6.570246    -4.302954
O    -10.074096     5.712414    -4.383515
H    -10.923100     5.950826    -4.768598
H    -8.520801     8.425681    -3.510241
O    -8.674272     8.037135    -4.377425
H    -7.786516     7.704966    -4.645361
N    -8.991338     3.933409    -6.290506
H    -9.210373     4.628556    -5.638515
H    -8.047336     3.778283    -6.181202
