30

H    -4.022080     5.821614    -2.407875
O    -4.317262     5.010139    -2.837056
H    -4.105466     5.077637    -3.789149
H    -0.641531     4.534227    -4.011628
O    -1.431561     5.089059    -4.191068
H    -1.280924     5.911401    -3.684673
H    -1.163300     1.516278    -3.947017
O    -1.806377     2.157583    -4.313242
H    -1.541343     2.433876    -5.212815
H    -5.218596     5.789660    -5.536936
O    -4.505350     5.123141    -5.654286
H    -3.733597     5.637574    -5.956539
H    -5.498867     3.398903    -5.609949
O    -6.002545     2.750136    -5.100362
H    -5.322974     2.173841    -4.679001
H    -1.971052     7.276146    -6.112026
O    -2.103371     6.350854    -6.331104
H    -1.692212     5.829152    -5.571729
H     0.753078     2.983948    -7.171183
O     1.676577     2.658959    -7.162683
H     1.690278     1.895921    -7.771808
H    -1.642181     3.451255    -7.403570
O    -1.057844     2.867810    -6.871281
H    -1.111423     1.983856    -7.319015
H    -0.117798     0.249460    -8.192874
O    -1.043274     0.423712    -7.949814
H    -1.173945    -0.052999    -7.110156
N    -2.601940     4.591732    -8.375527
H    -2.374013     5.382986    -7.851737
H    -3.539393     4.465248    -8.191626
