27
Coordinates from ORCA-job grain_mol_opt.QMRegion
  H   -4.58828386151703      0.57799394844271      2.26374811991693
  O   -4.88481916842498     -0.36542312940322      2.22595164618744
  H   -4.30563455251737     -0.79273562959756      1.58197153943958
  H   -5.76504479321755     -3.24056921579859      1.40674997104718
  O   -6.25071943529660     -3.80834609401120      2.06577988705195
  H   -6.05229419848900     -3.38272268777910      2.92555507519253
  H   -6.22408354339356     -0.15016277329987      1.10447083911750
  O   -6.74254732316924     -0.31248629478938      0.29191343039403
  H   -7.62908961559462     -0.54356433643969      0.62008609327837
  H   -5.33903238252659     -3.17597177984600     -0.53540629245353
  O   -5.11841585649809     -2.46289349185282      0.09634306378356
  H   -5.75400074987773     -1.72560180045167     -0.06287986287372
  H   -9.05583130499549     -1.85825675044607     -2.33628188666184
  O   -8.53132189515449     -1.60274603214300     -1.54612165780475
  H   -8.56329570442673     -2.35248451674701     -0.91521478133599
  H   -7.75731107193021     -3.80694234662863      0.96189045625708
  O   -8.47339559384133     -3.70035143338524      0.30111113055174
  H   -8.39501166233665     -4.46644819264857     -0.30234269869871
  H   -6.08718942842772     -1.68089106896588     -3.57149190078727
  O   -6.18012876551668     -2.22768565162838     -2.75671717515056
  H   -6.95429578612541     -1.89338059692784     -2.25989427172846
  H   -7.89946497831151      0.10696311002320     -1.91419929645328
  O   -7.40390141151727      0.80584024567753     -2.36545020722217
  H   -7.66480549740149      0.78963850665451     -3.30758218222266
  O   -9.28556495163942     -1.05660414192649      1.38911925357570
  H   -9.29830817427033     -2.00420008550053      1.18867794532501
  H   -9.87780108640226     -0.67967144398314      0.72971023746110
