30
Coordinates from ORCA-job grain_mol_opt.QMRegion
  H   6.21769260085255      0.76536255095792      4.71398826346122
  O   5.99043192241765      1.33757161006506      5.46744532812500
  H   6.25386831028786      2.23702978797725      5.18974092662078
  H   7.80251117106546      0.49266438271630      2.89325379458556
  O   6.93756950938737      0.08496091202499      3.12140554178873
  H   7.07980805118638     -0.87894244670158      3.18121279674764
  H   5.75000442866438      0.04096766217502      0.35625324571975
  O   5.56133333968191      0.77478062003367      0.97442503911823
  H   6.03574648780095      0.52648629176012      1.80706444548579
  H   9.44835974212096      0.02205972881516     -0.90640005915107
  O   8.70579977504105      0.34250788902936     -0.37269490746563
  H   8.35276386772963     -0.49047282480384      0.00074786514234
  H   7.94520102522365     -3.10164779670864      0.43770145562695
  O   8.40491079688969     -2.26395426775224      0.67471708427775
  H   8.29917248769238     -2.23353278767233      1.63659451065253
  H   5.37591654452053      3.62227587440532      3.63363164004706
  O   6.05756507905195      3.85694514690066      4.29037368041644
  H   5.63314110426509      4.56296322648587      4.81000320167656
  H   6.07183080151982      1.89220760847947     -0.52728840417912
  O   6.66784878479937      2.13444816722100     -1.25117052164477
  H   7.46456720469755      1.61131656970869     -1.07145161114526
  H   4.58403169904816      4.12445882001612      1.68308786046051
  O   4.37084715794900      3.20076932113089      1.95824760529645
  H   5.07032593863010      2.63715947623754      1.60681495457987
  H   9.67110372376147     -2.29820905664713     -1.08386231931824
  O   9.90504134480460     -1.87870496459772     -1.92324742516342
  H   9.03697489388200     -1.65489352588357     -2.33025512239559
  O   9.08870918950757      1.49256198014057      2.17086286765821
  H   9.07620691204114      1.22396006178418      1.23087321611481
  H   8.80064097245533      2.41184782294461      2.18111365826590
