603

H     0.221606     3.034544    -0.633023
O     0.745781     2.367006    -1.126369
H     1.683488     2.494469    -0.848680
H    -0.075292    -1.316411     3.179902
O     0.321901    -0.615005     2.641105
H    -0.156105     0.198796     2.873493
H    -2.378457     2.416211    -0.502317
O    -2.171480     1.941963     0.320525
H    -2.188117     0.995137     0.091760
H    -4.655480     0.545531     2.199776
O    -4.973204    -0.387860     2.208596
H    -4.466536    -0.863241     1.541984
H     0.075600    -0.310569     0.985204
O    -0.116954    -0.071373     0.058122
H     0.221848     0.826236    -0.057479
H    -0.157535    -3.589760     3.798702
O    -0.436794    -2.760808     4.221320
H     0.206492    -2.593791     4.926157
H    -4.873281     2.532283     1.354118
O    -4.237005     2.119011     1.969813
H    -3.392017     2.103171     1.460606
H    -3.221046     3.910389    -2.176275
O    -2.485469     3.311081    -1.944912
H    -2.123426     3.026956    -2.804237
H    -0.115594    -3.805273     0.523561
O     0.223944    -2.990097     0.946349
H    -0.564218    -2.503424     1.255992
H    -2.373669    -1.543594     2.488795
O    -2.181212    -2.007088     1.647279
H    -2.436681    -1.417459     0.918649
H     2.090975    -1.440690    -1.084042
O     2.319206    -1.697681    -0.166752
H     1.527683    -2.125079     0.212525
H    -1.380545     1.820254     1.947685
O    -1.476610     1.418645     2.821550
H    -1.463978     2.128815     3.489109
H     0.227113    -2.696945    -1.544561
O    -0.527764    -2.084550    -1.599769
H    -0.350054    -1.360153    -0.963106
H    -3.423265    -2.919533    -0.381133
O    -2.704414    -3.410945    -0.800049
H    -1.993217    -2.779935    -1.013943
H     2.774497     0.111016     2.979670
O     2.871733    -0.076908     3.941213
H     2.959820     0.818009     4.345053
H    -3.505421     6.387051    -0.499494
O    -3.264249     7.051680    -1.196748
H    -3.122692     7.894958    -0.722911
H     3.912435     0.576030     1.236939
O     2.962217     0.392443     1.351128
H     2.725662    -0.355322     0.765477
H    -5.759116     0.855936    -1.589924
O    -4.848756     1.181507    -1.458808
H    -4.960687     2.008592    -0.945148
H    -1.198704     5.391955     2.258565
O    -1.824463     4.645769     2.136562
H    -1.905185     4.224436     2.997426
H     3.507842     2.758516     0.482517
O     3.265776     2.718947    -0.458239
H     3.598427     1.877063    -0.809887
H     1.510064    -4.689689    -2.227829
O     1.573575    -3.914924    -1.651206
H     2.369633    -3.452999    -1.998023
H    -0.897143    -0.073582    -2.518171
O    -0.260267     0.578611    -2.837357
H    -0.002585     1.158775    -2.097626
H     1.710250    -4.686003    -0.155508
O     1.813952    -5.325981     0.585240
H     1.350436    -6.135380     0.284401
H    -1.203952    -3.252970    -2.862685
O    -1.028265    -3.934415    -3.524867
H    -0.904980    -4.783043    -3.058251
H    -2.780712     3.296057     4.740045
O    -1.799534     3.290295     4.708995
H    -1.509542     2.887841     5.545428
H     0.968461     5.023814     4.135007
O     0.020509     5.252011     4.179213
H    -0.450529     4.448520     4.435691
H    -1.718577    -4.646365    -0.361140
O    -0.955184    -5.189117    -0.074946
H    -1.306125    -5.877630     0.499258
H    -3.886902     5.846782    -2.557722
O    -4.237231     5.014399    -2.892446
H    -4.078171     4.983247    -3.860027
H    -2.427110    -3.692469     1.947169
O    -2.447707    -4.598013     2.319816
H    -1.508834    -4.837624     2.462901
H    -4.672610    -2.963106    -2.893782
O    -3.818930    -3.195679    -3.297508
H    -3.490659    -3.991144    -2.833609
H     0.335011     1.362145     4.655966
O     0.845933     2.120188     4.326900
H     0.893473     2.780103     5.033067
H    -4.639606    -5.158535    -1.573680
O    -5.343273    -4.806453    -1.001391
H    -5.133944    -5.164037    -0.117669
H     2.350183    -6.468939    -4.020193
O     2.010455    -6.142902    -3.166679
H     2.441607    -6.719654    -2.503940
H     0.493485    -3.364330    -3.982106
O     1.298314    -2.996981    -4.400848
H     0.982361    -2.621843    -5.249151
H     1.964410    -1.765119     3.016184
O     2.120469    -2.695575     2.797352
H     1.437252    -2.906322     2.126428
H    -2.989883    -1.793119    -3.194242
O    -2.566862    -0.907466    -3.124461
H    -3.220491    -0.259769    -3.444019
H    -3.173995     4.976843     1.119700
O    -3.954269     5.351729     0.663697
H    -4.370971     5.908116     1.370293
H     0.884344     2.246127     2.636796
O     0.986018     2.240704     1.665729
H     1.714599     1.619491     1.503036
H     0.214614     5.660755    -0.702673
O     0.737972     6.323683    -1.208106
H     0.879742     7.121423    -0.648659
H     0.355391     7.027297     2.652281
O    -0.004702     6.650189     1.831902
H     0.660302     5.980372     1.571157
H    -2.478034     0.207252     3.365726
O    -2.702773    -0.608819     3.866528
H    -1.945294    -0.651306     4.491246
H    -0.902699     0.535372     6.056851
O    -0.626475     0.015355     5.283412
H     0.083557    -0.590289     5.570502
H     0.711691    -5.001353     1.998439
O     0.167288    -5.112997     2.801225
H     0.309007    -6.035161     3.069687
H    -2.114211    -8.086620     0.444700
O    -1.794171    -7.602014     1.233004
H    -2.581928    -7.291269     1.686890
H    -0.348900     6.873754    -2.267787
O    -1.093320     7.295408    -2.768946
H    -1.885249     7.168622    -2.208224
H    -1.095584     4.310496     0.619413
O    -0.720009     4.372733    -0.275596
H    -1.425254     4.134995    -0.910782
H    -4.405341     2.740951     3.533841
O    -4.408031     2.907387     4.499140
H    -4.493530     2.022975     4.904443
H     2.018064    -3.599427     4.271683
O     1.951191    -4.075122     5.123028
H     2.453387    -3.540699     5.758487
H     4.695989    -3.201565     0.879380
O     4.539158    -3.122740    -0.087098
H     3.680884    -2.644363    -0.172692
H    -2.703905    -0.739329    -1.331322
O    -3.034368    -0.472931    -0.456931
H    -3.833191     0.055200    -0.664744
H    -1.585620    -0.741225    -4.606611
O    -1.074931    -0.523539    -5.407682
H    -0.366021     0.071736    -5.117645
H     1.820299    -1.703699    -3.342880
O     1.911247    -0.959597    -2.716347
H     1.134943    -0.380948    -2.848029
H     3.664912    -3.133701     2.587133
O     4.624421    -3.362651     2.519597
H     4.677033    -4.323894     2.639820
H     3.422737    -6.135730     3.147226
O     3.782438    -5.930534     2.249796
H     3.046959    -5.583730     1.704673
H    -3.311988     1.630825    -4.150673
O    -4.157937     1.160105    -3.964731
H    -4.378980     1.302931    -3.008439
H    -5.063209     4.154167     0.096783
O    -5.502542     3.288969    -0.011996
H    -6.431762     3.410679    -0.296378
H     6.751861    -1.184394    -1.308971
O     5.979287    -1.036028    -0.757193
H     5.557653    -1.903794    -0.565773
H     4.614365    -3.164827    -2.431065
O     3.748077    -2.991195    -2.849243
H     3.753447    -3.606880    -3.607934
H     4.426891    -2.325069     5.658476
O     4.081667    -2.787603     6.453084
H     4.411876    -3.694567     6.370794
H    -0.748745     6.321392     5.129412
O    -1.349198     6.894770     5.666828
H    -1.358377     7.773871     5.229250
H     4.718382    -0.136785    -1.415706
O     3.952598     0.407450    -1.678793
H     3.260510    -0.190512    -2.014427
H    -0.708190     4.540058    -3.989983
O    -1.489575     5.084440    -4.199290
H    -1.339062     5.949403    -3.772549
H     0.687198     3.213756    -2.610335
O     0.698445     3.593205    -3.517670
H     0.746865     2.831701    -4.105536
H    -5.381772    -5.192764     1.788779
O    -4.684387    -5.787296     1.434423
H    -3.844496    -5.373100     1.709324
H     7.908732    -1.684590    -3.976821
O     7.647923    -1.374242    -3.076929
H     7.162675    -0.529135    -3.232624
H     3.729331    -5.056749    -5.261027
O     4.490568    -4.686244    -4.775703
H     4.872094    -5.399835    -4.231317
H    -3.788839     0.005836     4.953801
O    -4.390378     0.467897     5.587004
H    -5.053218    -0.189961     5.873254
H     3.474012    -5.943837    -0.494979
O     4.348774    -5.696690    -0.807181
H     4.425044    -4.734804    -0.660893
H     5.029643    -0.326060    -4.109749
O     4.495389    -1.035872    -4.503946
H     4.165635    -1.621002    -3.789353
H    -1.141706     1.588279    -3.901811
O    -1.790289     2.210474    -4.287884
H    -1.429109     2.545206    -5.131435
H     4.900924    -6.318905    -2.285765
O     5.236531    -6.641162    -3.151288
H     6.053336    -7.123670    -2.963497
H     8.759671    -5.091109    -2.870347
O     8.066187    -5.510010    -2.315525
H     8.099748    -6.466963    -2.421417
H     2.354658     4.715693     0.509791
O     1.773161     4.695290     1.279013
H     1.414458     3.776128     1.352796
H    -4.420192    -2.643228     4.239000
O    -5.312956    -2.301981     4.034733
H    -5.173266    -1.518989     3.462249
H    -5.840582    -3.192665     1.317813
O    -6.306119    -3.751747     1.982631
H    -6.120662    -3.319233     2.835290
H     1.558312     3.331558     6.940050
O     1.006118     3.920588     6.405275
H     0.207783     4.077896     6.960868
H     5.001319    -2.184350     3.662284
O     5.015771    -1.469181     4.330839
H     4.202879    -0.914493     4.166132
H     2.380203    -5.596996     4.860190
O     2.760922    -6.479890     4.599513
H     2.016117    -7.059986     4.419554
H     2.290925    -4.494320    -6.764391
O     2.118595    -4.985195    -5.950914
H     1.851936    -4.295875    -5.294263
H     6.451246    -4.108231    -0.460717
O     7.202256    -4.513499     0.004286
H     7.711808    -4.934333    -0.716134
H    -1.732173     4.467805     7.744189
O    -0.835235     4.561075     8.135286
H    -0.649944     5.520147     8.161739
H    -5.077737     5.720228    -5.561262
O    -4.471073     4.955991    -5.582398
H    -3.711384     5.171763    -6.144598
H     3.323329    -2.501161    -8.400229
O     3.232322    -3.036499    -7.601051
H     4.107406    -3.014510    -7.169031
H    -0.627541     8.836745    -2.215953
O    -0.505735     9.663357    -1.694141
H     0.253852     9.485903    -1.114480
H     2.056642    -0.931906     5.248070
O     1.487248    -1.463122     5.834579
H     1.568697    -1.116780     6.732300
H     5.238278    -2.009769    -5.647624
O     5.585750    -2.774673    -6.170798
H     5.308871    -3.566065    -5.657173
H     5.685998    -5.237302     4.721701
O     5.160843    -5.153714     5.547029
H     4.439546    -5.785445     5.456925
H    -3.984990     1.127210     7.030193
O    -3.795063     1.598761     7.876998
H    -4.671685     1.985663     8.135311
H    -1.823957     9.620576    -0.685103
O    -2.686663     9.493168    -0.215043
H    -3.295421     10.124077    -0.602692
H    -5.918637     4.707899    -2.910293
O    -6.826236     4.590728    -3.258085
H    -6.734009     3.890669    -3.937276
H     0.104818    -7.059860    -1.134151
O     0.565862    -7.498656    -0.386057
H    -0.116155    -7.695252     0.259293
H    -7.612288     3.808083    -1.954486
O    -7.877242     3.218781    -1.217511
H    -7.733639     2.311200    -1.559653
H     3.827653    -1.165850     7.152415
O     3.887339    -0.196850     7.214883
H     4.500160     0.060257     6.515726
H     2.282691     5.798993    -1.117364
O     3.217580     5.504428    -1.002121
H     3.395837     4.967278    -1.796725
H     6.555410    -5.938787     0.708791
O     6.184506    -6.675995     1.239757
H     5.278933    -6.399334     1.462871
H    -3.877618     4.708430     7.816250
O    -3.308930     4.246358     7.158472
H    -3.505376     3.303257     7.264375
H     5.766955    -7.952071     0.164983
O     5.480657    -8.636744    -0.475650
H     4.653251    -8.309185    -0.871984
H    -0.570987     2.020239     7.731064
O    -1.200842     1.951595     6.994345
H    -2.071656     1.814065     7.387518
H    -6.373090    -0.116126     1.072310
O    -6.690080    -0.197243     0.158107
H    -7.609441    -0.466121     0.172085
H    -5.359912    -3.054329    -0.585093
O    -5.108981    -2.354996     0.044379
H    -5.677385    -1.580604    -0.142304
H     4.332903     5.575809     0.387945
O     4.665533     5.668145     1.294358
H     3.972868     6.178318     1.750502
H    -9.024263    -1.725441    -2.258437
O    -8.478872    -1.527405    -1.469796
H    -8.609370    -2.265973    -0.835068
H    -5.487147     3.497732    -5.501752
O    -6.006662     2.785943    -5.091615
H    -5.342206     2.198569    -4.677282
H     3.213457    -0.871847    -5.613190
O     2.359065    -0.989572    -6.082309
H     2.445369    -1.836988    -6.558379
H     8.148342    -1.337689    -5.970444
O     8.153913    -2.203169    -5.516665
H     7.298258    -2.601330    -5.771992
H     7.657950     1.004204    -6.245524
O     7.469738     0.157245    -6.661885
H     6.488461     0.108642    -6.702201
H    -7.854692    -3.685455     0.922551
O    -8.530545    -3.575595     0.236157
H    -8.430951    -4.333027    -0.367799
H    -2.388030     8.736426     1.348338
O    -2.242218     8.144334     2.099430
H    -1.470490     7.592099     1.879168
H    -4.435265     6.430463     3.536837
O    -4.602594     6.858964     2.681030
H    -3.838049     7.444723     2.545912
H     3.430752     3.455504    -3.520161
O     3.278329     4.424506    -3.424578
H     2.313839     4.490932    -3.534544
H    -6.091727    -1.585333    -3.436014
O    -6.178099    -2.167353    -2.654413
H    -6.963461    -1.860831    -2.147446
H     6.564333     1.256541     4.654407
O     6.176833     1.876483     5.297706
H     6.331757     2.765702     4.880047
H     1.397749     1.741546    -5.778088
O     1.199924     1.143237    -5.026577
H     1.563344     0.280721    -5.298067
H    -2.510452     2.932965     10.518668
O    -2.298052     2.025812     10.243222
H    -2.893779     1.829472     9.508049
H     7.624146    -0.506497     3.147699
O     6.878175     0.072030     3.326931
H     6.183607    -0.530687     3.695647
H    -5.652472    -8.044000    -0.715261
O    -4.919908    -8.115698    -0.066512
H    -4.924780    -7.300195     0.458220
H    -5.147432    -0.095266    -4.700359
O    -5.764339    -0.805618    -4.944862
H    -6.601288    -0.362299    -5.144427
H     1.929796    -0.174080    -7.475180
O     1.731806     0.300637    -8.318265
H     2.310407    -0.103075    -8.970594
H     4.917297    -1.366455    -9.257525
O     3.993344    -1.135864    -9.542202
H     3.976490    -1.250066    -10.491754
H     7.558664    -2.593290     4.252942
O     7.707696    -2.623651     3.293877
H     7.216834    -3.414135     3.016231
H     6.717140    -5.910070     2.722553
O     6.777718    -5.237598     3.426755
H     7.652327    -5.326116     3.846449
H    -1.809832     8.939021     3.555569
O    -1.566989     9.241027     4.455949
H    -2.417716     9.372021     4.907861
H    -7.356322     1.595576    -5.237880
O    -7.932840     0.851205    -4.997472
H    -8.834369     1.251663    -4.923326
H     6.968210    -1.061610    -8.349352
O     6.386614    -1.781321    -8.617437
H     6.155233    -2.233575    -7.787773
H    -1.631516     6.268456    -6.973315
O    -2.030827     5.442443    -6.704090
H    -1.786146     5.308428    -5.739831
H    -0.014177     3.280783     9.068801
O     0.179091     2.359158     9.322453
H    -0.624216     2.097066     9.823778
H     6.775955    -2.777376    -2.656375
O     6.243866    -3.522150    -2.318879
H     6.711976    -4.332644    -2.567226
H    -4.050194    -3.049993    -4.934627
O    -4.200644    -2.934038    -5.899600
H    -4.746955    -2.140264    -5.955137
H     1.865497     2.100571     8.642328
O     2.567483     2.105094     7.972882
H     2.806355     1.166617     7.819320
H    -6.895632    -5.187186    -1.403981
O    -7.810517    -5.455065    -1.653745
H    -7.940552    -5.049261    -2.535779
H    -3.827564     5.244156     5.735087
O    -3.791806     6.014263     5.146998
H    -2.857421     6.307447     5.245207
H    -7.864765     0.105478    -1.960211
O    -7.372557     0.829736    -2.369624
H    -7.597582     0.822301    -3.323686
H     5.850074     0.122736     0.468092
O     5.627069     0.841645     1.091691
H     6.133629     0.644062     1.905632
H    -6.224324     3.296071     7.419409
O    -6.099865     2.774290     8.246576
H    -6.701411     2.014568     8.153469
H     2.284703    -8.072231    -0.827777
O     2.964808    -8.058237    -1.520941
H     2.741317    -8.769751    -2.137594
H    -2.713899    -3.936075    -6.186152
O    -1.961743    -4.503983    -5.953528
H    -1.688320    -4.215564    -5.054502
H    -5.645488     3.752453     5.335935
O    -6.295963     4.147426     5.952703
H    -6.130914     5.091292     5.943157
H    -1.002209    -7.101157    -3.156361
O    -0.530651    -6.433896    -2.624127
H     0.377988    -6.364000    -3.002067
H     4.478051     2.074145     5.051996
O     3.509401     2.234849     4.970401
H     3.164101     2.237248     5.869568
H     4.453368     5.075114     6.174692
O     4.340370     5.765228     5.494271
H     3.762216     5.362902     4.804904
H     2.760424     3.677642     3.875922
O     2.591909     4.624110     3.735681
H     2.415922     4.725360     2.772334
H     9.410059     0.205164    -1.002892
O     8.603918     0.367458    -0.509295
H     8.424606    -0.454118    -0.022126
H    -2.118256     5.290754     10.694839
O    -2.841204     4.661363     10.922275
H    -3.063616     4.837851     11.836620
H     7.981443    -3.018592     0.380102
O     8.402512    -2.173327     0.640137
H     8.333385    -2.171617     1.602102
H     5.468309     3.889206     3.399490
O     6.194886     4.188774     3.974133
H     5.783451     4.919540     4.474834
H    -4.224200     4.997894     9.821110
O    -4.855130     5.151361     9.097811
H    -5.467548     4.403271     9.090915
H    -6.989415    -3.456240    -3.487845
O    -7.608907    -4.066146    -3.940316
H    -7.085896    -4.506339    -4.642219
H     0.010677     6.096502     10.824925
O    -0.853221     6.428544     10.575974
H    -0.732764     6.862097     9.711593
H     2.618488     1.507775    -4.056941
O     3.496853     1.857886    -3.814340
H     3.813275     1.340850    -3.043815
H    -6.986072    -0.231569     7.228132
O    -7.494674     0.546485     7.509553
H    -8.114710     0.733577     6.803630
H    -2.738419    -9.865648    -0.838164
O    -2.673385    -8.923533    -0.994426
H    -3.579823    -8.556736    -0.756033
H    -10.034488     3.106373    -4.889315
O    -10.153746     2.188156    -4.611953
H    -10.372578     2.269543    -3.662668
H    -2.075465    -3.034948     4.630655
O    -2.950508    -3.474999     4.696375
H    -2.942757    -4.089746     3.937524
H    -0.183419    -7.988724     2.492967
O     0.641783    -7.780820     2.944298
H     1.361497    -8.075828     2.358785
H     6.687506    -2.408671     6.448282
O     7.141280    -3.112234     5.979975
H     6.514168    -3.849151     5.933416
H    -5.286776    -2.017492     6.952640
O    -5.960812    -1.517240     6.467949
H    -5.941807    -1.891089     5.557486
H     0.878144     3.057072    -7.067119
O     1.795499     2.725103    -7.121271
H     1.782760     1.979782    -7.749673
H    -3.953225     8.742021     6.722215
O    -3.952742     8.742760     5.764841
H    -4.074852     7.815699     5.494144
H    -2.025103     10.327555    -2.675621
O    -2.925247     10.511089    -2.980902
H    -2.849679     11.147547    -3.691156
H     9.405020    -4.084255     4.098081
O     9.122065    -4.763463     4.718017
H     8.691235    -4.292686     5.442219
H    -0.708025    -5.975332    -5.828447
O    -0.006358    -6.543733    -5.494306
H     0.830416    -6.082547    -5.707798
H     1.845819     8.273211     0.733281
O     1.545161     8.597364    -0.145102
H     2.361973     8.637185    -0.671932
H     3.538446     2.949238    -6.606124
O     4.364223     2.656171    -6.195169
H     4.115562     2.380440    -5.287866
H     3.758516     7.127075    -1.159644
O     3.966107     8.062791    -1.370649
H     4.338609     8.008667    -2.262577
H     4.436009     0.014999    -7.861956
O     4.810467     0.157904    -6.990847
H     4.628860     1.089297    -6.744817
H     6.046983     1.929896    -0.414433
O     6.616055     2.123535    -1.173024
H     7.439229     1.642405    -0.977002
H     6.693290    -8.432462    -1.576589
O     7.332160    -8.220004    -2.309989
H     7.698800    -9.053657    -2.599685
H    -5.276079    -5.761971    -5.410850
O    -5.891361    -5.088259    -5.725616
H    -5.338509    -4.319895    -5.957909
H     0.685854     7.148019     7.660321
O    -0.217228     7.173743     8.017054
H    -0.770381     7.195643     7.198203
H    -8.873358    -2.807025    -4.108496
O    -9.393506    -1.998519    -3.940127
H    -9.104457    -1.331807    -4.566962
H    -2.396363    -5.976323    -2.137335
O    -3.273267    -5.688148    -2.407921
H    -3.457907    -6.059512    -3.295634
H    -2.961571    -5.876280    -5.404977
O    -3.563645    -6.486942    -4.936647
H    -3.083272    -7.308354    -4.771259
H    -1.348336     3.753816    -6.940841
O    -0.809951     2.996275    -6.671031
H    -1.046408     2.213392    -7.224208
H    -0.161913     0.446690    -8.180941
O    -1.058691     0.681939    -7.899932
H    -1.237167     0.156212    -7.104152
H    -10.395482     4.077400    -2.722878
O    -10.465836     3.296852    -2.157684
H    -9.638179     3.267773    -1.646118
H     4.586784     4.075619     1.769926
O     4.383105     3.154452     2.055628
H     5.098214     2.577406     1.774966
H     6.514973     1.405886    -4.158289
O     6.209342     0.779691    -3.467136
H     6.237290     1.273005    -2.621998
H     9.646565    -2.232858    -0.868814
O     9.926606    -2.015328    -1.766721
H     9.128091    -1.674757    -2.212124
H     9.989448    -3.320804    -3.040445
O     9.723674    -3.970554    -3.718042
H     9.333206    -3.460318    -4.438240
H    -7.689919    -8.557356    -1.686943
O    -6.950843    -7.963557    -1.810600
H    -7.327439    -7.050074    -1.799307
H     4.193735     6.090542    -3.752578
O     4.855672     6.790541    -3.664599
H     5.690708     6.335455    -3.523966
H     0.119538    -8.151341    -5.207573
O     0.142009    -9.134683    -5.078665
H     0.294807    -9.495891    -5.951892
H    -2.320528    -8.659588    -2.718143
O    -2.082986    -8.393065    -3.625920
H    -1.436019    -9.011274    -3.984482
H     2.196160    -10.805523    -3.488952
O     2.151154    -9.851013    -3.461559
H     1.368030    -9.577532    -3.989855
H     6.868434     3.339161    -4.505828
O     6.928258     2.662776    -5.208392
H     6.136975     2.798837    -5.751590
H    -3.583803    -3.741308     7.730339
O    -3.693551    -2.951026     7.203045
H    -3.440837    -3.187602     6.284437
H    -0.605396    -3.337139    -6.703351
O     0.026009    -2.606694    -6.706042
H    -0.455909    -1.831556    -6.363796
H     0.616561     0.430367     8.791994
O     0.633005    -0.282313     8.149549
H    -0.289434    -0.569924     8.054425
H    -5.797689     7.391905    -4.213167
O    -6.299487     6.775459    -4.777943
H    -6.589251     6.043013    -4.190058
H    -4.243999     9.121870    -3.213895
O    -4.780882     8.325901    -3.112214
H    -4.375616     7.843719    -2.373254
H    -9.675591     5.826922    -4.626292
O    -10.210443     5.022273    -4.467395
H    -11.089753     5.225402    -4.788330
H     2.762714     6.618830     6.172371
O     1.797896     6.654727     6.290234
H     1.523307     5.724014     6.176369
H     4.826839     8.542997     0.162185
O     5.142735     8.541879     1.083272
H     5.545251     7.675922     1.216212
H     4.162561    -7.414569    -4.318153
O     3.406026    -7.696710    -4.863921
H     3.123460    -8.538574    -4.491556
H     0.388533     8.647399     4.302178
O     1.061023     7.999531     4.069907
H     1.293889     7.506836     4.884541
H     5.263875     4.198411    -3.091853
O     6.225121     4.165799    -3.036599
H     6.430658     3.582924    -2.289071
H    -2.593340    -1.563228     7.593643
O    -2.081321    -0.772391     7.819012
H    -2.707742    -0.145528     8.191586
H    -8.991291     7.964369    -4.117242
O    -8.926143     7.382131    -4.875672
H    -7.968723     7.217518    -5.007983
H     3.529039    -8.985501     1.107261
O     2.852554    -8.353731     1.356689
H     3.327236    -7.549825     1.640040
H     3.600668     8.163987     1.906504
O     2.807167     7.603295     2.008172
H     2.362754     7.830389     2.838063
N     4.841772     3.791313     7.527804
H     5.501211     3.157944     7.222845
H     4.127956     3.241360     7.893642
