33

H    -4.610089     0.441314     2.141177
O    -4.978206    -0.470496     2.161554
H    -4.507877    -0.978435     1.486295
H    -4.861657     2.498386     1.289686
O    -4.223904     2.110420     1.924097
H    -3.377678     2.110602     1.409608
H    -4.352366     2.749303     3.523710
O    -4.382524     2.877698     4.496058
H    -4.476958     1.965271     4.858953
H    -3.717608    -0.051531     4.957604
O    -4.301324     0.428587     5.597394
H    -4.976458    -0.234703     5.858407
H    -3.931899     1.092573     7.075980
O    -3.822188     1.603257     7.911171
H    -4.713293     1.994494     8.100464
H    -6.418558    -0.237213     1.042765
O    -6.695336    -0.275998     0.109659
H    -7.579651    -0.651121     0.063541
H    -6.231170     3.379280     7.392303
O    -6.165931     2.819215     8.193444
H    -6.800672     2.089614     8.028569
H    -5.500767     3.845387     5.213237
O    -6.245526     4.216746     5.762469
H    -6.193733     5.171225     5.659811
H    -7.213074    -0.112317     7.119212
O    -7.673931     0.729223     7.249734
H    -7.802814     1.074586     6.345787
H    -5.199673    -2.071883     6.929379
O    -5.908219    -1.576610     6.479132
H    -5.915741    -1.969480     5.577587
N    -7.691196     2.058806     4.739975
H    -7.405444     2.966549     4.960666
H    -8.459614     2.159066     4.173538
