27

H    -4.596925    -5.147707    -1.576195
O    -5.339351    -4.850883    -1.012500
H    -5.055965    -5.147622    -0.121060
H    -5.305968    -5.130678     1.846500
O    -4.629167    -5.750079     1.494812
H    -3.784424    -5.320502     1.755453
H    -5.792711    -3.119320     1.305176
O    -6.299382    -3.648661     1.971606
H    -6.084473    -3.204228     2.819331
H    -9.055843    -1.711820    -2.368553
O    -8.543997    -1.492494    -1.559994
H    -8.672640    -2.202605    -0.896622
H    -7.922200    -3.534614     0.950957
O    -8.628599    -3.513091     0.279501
H    -8.367059    -4.183239    -0.383061
H    -5.689224    -8.205450    -0.425379
O    -4.880754    -8.240991     0.135162
H    -4.831189    -7.375131     0.568160
H    -6.923154    -5.256904    -1.473676
O    -7.875408    -5.407658    -1.700850
H    -7.967876    -4.971807    -2.579317
H    -7.882151    -8.080500    -0.475329
O    -7.238459    -8.204041    -1.193542
H    -7.383366    -7.400379    -1.718105
N    -9.269535    -6.935562     0.407142
H    -9.232131    -6.401247     1.207138
H    -9.131668    -6.290892    -0.303035
