27
Coordinates from ORCA-job grain_mol_opt.QMRegion
  H   -0.83577580127360      0.55104774482328      6.01502569644066
  O   -0.55998960944935      0.03896598087986      5.23172128706864
  H   0.15422138156488     -0.57820490066938      5.49902085319398
  H   -4.01297236459464      1.21603984032671      6.92775978558972
  O   -3.81067788920736      1.66190073167611      7.79131765896270
  H   -4.68770825547647      2.04464543548978      8.07054439137223
  H   -0.48455645141457      2.10141433346361      7.68520184471530
  O   -1.14343359069322      1.95582763663217      6.97561708212823
  H   -2.00234971554552      2.01758055923554      7.40969902782934
  H   -2.51204379636346      3.04080891068035     10.57159936679226
  O   -2.31211374633491      2.11015464778112     10.35386528776356
  H   -2.90444249748459      1.90758813266644      9.61685935678067
  H   -0.05153905066415      3.50935351624981      9.01240911045069
  O   0.32697261128667      2.63872377800135      9.24769392573569
  H   -0.37520551148391      2.23390253162231      9.77752790946387
  H   -3.85652070956957     -3.79013389560364      7.58543429701475
  O   -3.69550046653500     -2.95928846546759      7.13268045146726
  H   -3.42904687097651     -3.20965380176042      6.21515925786840
  H   0.97865705857415     -0.30581232833651      9.01173684318619
  O   0.78953996232139     -0.19009046408889      8.07607894604680
  H   -0.14745684049792     -0.42461133269387      8.01785293538029
  H   -2.61343513443857     -1.66158483920185      7.80134524653431
  O   -2.13110368554911     -0.86610567861949      8.09880136707547
  H   -2.80480706977220     -0.17573637192263      8.15767331760855
  O   -0.79595665447576     -0.47852264895380     10.64698261217212
  H   -1.26333954894821      0.30151290880114     10.97002923126032
  H   -1.36791846777498     -0.79022409996303      9.92586965762852
