30

H     4.310764    -2.401888     5.696288
O     3.979439    -2.958320     6.433520
H     4.390068    -3.825675     6.255401
H     4.902080    -2.194415     3.608131
O     4.928969    -1.480133     4.278379
H     4.103672    -0.937455     4.115234
H     3.570982    -1.202269     7.513720
O     3.775462    -0.259249     7.457211
H     4.742135    -0.250666     7.352582
H     6.716571     1.130719     4.478632
O     6.380764     1.644494     5.246316
H     6.470296     2.585647     4.960626
H     7.463040    -0.715719     2.948824
O     6.829219    -0.031147     3.204415
H     6.086339    -0.575284     3.588729
H     7.639719    -2.671923     4.164704
O     7.810454    -2.722981     3.202496
H     7.289901    -3.504246     2.944149
H     1.852006     2.223349     8.533291
O     2.603763     2.216465     7.920363
H     2.870266     1.277672     7.863857
H     4.514916     1.953940     5.147965
O     3.579194     2.205189     5.063388
H     3.187738     2.121916     5.943362
H     7.026782    -2.117852     6.317326
O     7.327577    -2.965838     5.944495
H     6.572484    -3.562384     6.010138
N     6.623020    -0.343157     7.052708
H     7.157725    -0.146063     7.826900
H     6.677358     0.462378     6.483930
