27

H    -4.587111     0.614495     2.256932
O    -4.887627    -0.327646     2.218610
H    -4.309746    -0.757252     1.574987
H    -5.779715    -3.198531     1.397573
O    -6.268421    -3.764473     2.055938
H    -6.069052    -3.339972     2.916050
H    -6.224792    -0.106363     1.096011
O    -6.743078    -0.265780     0.282761
H    -7.630988    -0.493165     0.609795
H    -5.351250    -3.135432    -0.544101
O    -5.128327    -2.423409     0.088041
H    -5.760372    -1.683258    -0.071968
H    -9.060457    -1.801077    -2.348334
O    -8.535608    -1.547985    -1.557625
H    -8.571323    -2.297718    -0.926909
H    -7.773879    -3.756366     0.950617
O    -8.488718    -3.646367     0.289041
H    -8.413087    -4.412619    -0.314565
H    -6.089863    -1.636066    -3.580505
O    -6.185941    -2.182707    -2.765995
H    -6.959225    -1.845306    -2.269877
H    -7.896155     0.159143    -1.924706
O    -7.396984     0.855962    -2.375147
H    -7.656956     0.841252    -3.317562
N    -9.290630    -0.999486     1.376861
H    -9.880516    -0.619799     0.716928
H    -9.307112    -1.946938     1.176002
