33

H     7.814967     0.985954    -6.349627
O     7.519111     0.178806    -6.781306
H     6.537618     0.237623    -6.811353
H     3.251835     3.591653    -3.569729
O     3.072890     4.559956    -3.540289
H     2.094815     4.549770    -3.552967
H     2.491687     1.559898    -4.103758
O     3.365419     1.928292    -3.847550
H     3.698903     1.369341    -3.114515
H     0.683999     2.952962    -7.117076
O     1.614498     2.650382    -7.220261
H     1.586109     1.866138    -7.810048
H     3.271670     2.906484    -6.645111
O     4.174810     2.725346    -6.320547
H     4.021535     2.414320    -5.401177
H     4.441034     0.009907    -7.988747
O     4.790589     0.205906    -7.113130
H     4.512867     1.127141    -6.922736
H     6.543882     1.516866    -4.145560
O     6.183290     0.858945    -3.514577
H     6.215009     1.288828    -2.638474
H     4.160663     6.134980    -3.789489
O     4.917515     6.746944    -3.770492
H     5.537174     6.288895    -3.183018
H     7.543772     3.315766    -4.132824
O     7.400773     2.853714    -4.969987
H     6.901773     3.543530    -5.472312
H     5.361018     4.056181    -2.962170
O     6.205657     4.364842    -2.615334
H     6.402773     3.709964    -1.922185
N     5.932231     4.864255    -6.148456
H     5.685025     5.552151    -5.511580
H     5.140960     4.299814    -6.244383
