15
Coordinates from ORCA-job grain_mol_opt.QMRegion
  H   -4.10172563692007     -3.04877860356036     -4.90513022289525
  O   -4.27082354332728     -2.94344808694206     -5.86946514203142
  H   -4.77359801663688     -2.11329038171857     -5.90110972267382
  H   -2.64538721291455     -3.89806458121977     -6.21443776084872
  O   -1.92398009031172     -4.49266201190501     -5.94798352989829
  H   -1.65229493088791     -4.17691045622155     -5.05487432754317
  H   -5.38739322376420     -5.70643234164930     -5.26221411933040
  O   -5.97927709124249     -5.14113390107952     -5.77792536888063
  H   -5.44337053217433     -4.33936514996431     -5.94858938163606
  H   -2.88214192234920     -5.95522872300295     -5.32681307432024
  O   -3.49865102101158     -6.60271303986269     -4.92317472623612
  H   -2.95890770811133     -7.35409414906825     -4.61101454083984
  O   -4.77686839299678     -7.34784142717223     -7.59861870349462
  H   -5.45784241813090     -6.67399296277461     -7.48013040422606
  H   -4.31594103247653     -7.31761043607265     -6.74960408299740
