603

H     0.215132     3.050116    -0.689988
O     0.736300     2.381032    -1.183334
H     1.675083     2.505515    -0.906804
H    -0.085270    -1.283074     3.142595
O     0.309449    -0.584485     2.597973
H    -0.165851     0.230608     2.830351
H    -2.388670     2.436654    -0.554237
O    -2.179867     1.967896     0.270655
H    -2.198434     1.019402     0.048019
H    -4.664261     0.584143     2.161357
O    -4.984904    -0.347833     2.173716
H    -4.479510    -0.828205     1.509721
H     0.062062    -0.287862     0.942723
O    -0.132656    -0.050427     0.015309
H     0.211494     0.844331    -0.104623
H    -0.172740    -3.552208     3.772107
O    -0.449688    -2.720427     4.190564
H     0.194988    -2.551480     4.894110
H    -4.878621     2.568727     1.305535
O    -4.242962     2.157118     1.922405
H    -3.398525     2.135644     1.412840
H    -3.230675     3.924121    -2.238235
O    -2.496811     3.327851    -2.001560
H    -2.134522     3.034968    -2.858462
H    -0.137028    -3.783669     0.497763
O     0.204513    -2.966400     0.914835
H    -0.581985    -2.477587     1.225093
H    -2.386637    -1.508050     2.456447
O    -2.197505    -1.975429     1.616221
H    -2.451982    -1.388091     0.885624
H     2.072101    -1.431323    -1.124415
O     2.300819    -1.683412    -0.206107
H     1.509617    -2.108577     0.176390
H    -1.385998     1.852193     1.897522
O    -1.483389     1.455387     2.773147
H    -1.467537     2.167657     3.438349
H     0.204557    -2.685257    -1.576570
O    -0.548415    -2.070495    -1.633704
H    -0.368098    -1.344946    -0.999199
H    -3.443964    -2.894401    -0.405737
O    -2.727204    -3.388862    -0.824528
H    -2.014407    -2.760775    -1.041332
H     2.767495     0.143410     2.930005
O     2.863735    -0.038635     3.892010
H     2.957210     0.854174     4.296335
H    -3.401312     6.442360    -0.493608
O    -3.227863     7.102045    -1.226121
H    -3.045560     7.953049    -0.775112
H     3.902359     0.592607     1.184564
O     2.950757     0.414628     1.297993
H     2.712660    -0.338113     0.719393
H    -5.773921     0.879147    -1.627431
O    -4.862658     1.204320    -1.501713
H    -4.970101     2.033129    -0.990414
H    -1.198579     5.423912     2.192368
O    -1.827068     4.680145     2.072725
H    -1.908670     4.260995     2.934807
H     3.502931     2.772269     0.420330
O     3.256155     2.729142    -0.519242
H     3.587461     1.885356    -0.868196
H     1.482354    -4.684012    -2.252162
O     1.547821    -3.905999    -1.680118
H     2.345102    -3.448233    -2.029563
H    -0.914310    -0.065335    -2.559702
O    -0.279382     0.586520    -2.883640
H    -0.017164     1.167389    -2.146240
H     1.685456    -4.671137    -0.180490
O     1.788689    -5.307661     0.563044
H     1.323413    -6.117744     0.266913
H    -1.229602    -3.244885    -2.888860
O    -1.056646    -3.929068    -3.548853
H    -0.934065    -4.776198    -3.079061
H    -2.779214     3.343391     4.685028
O    -1.797857     3.337248     4.652491
H    -1.508192     2.935812     5.490064
H     0.969571     5.056159     4.063122
O     0.023977     5.291083     4.110686
H    -0.451012     4.490209     4.370440
H    -1.743655    -4.625280    -0.380553
O    -0.980782    -5.167953    -0.093304
H    -1.331705    -5.853254     0.484823
H    -3.725419     5.841195    -2.772790
O    -4.163085     5.032691    -3.062599
H    -3.934085     4.925356    -4.014522
H    -2.445821    -3.659213     1.924551
O    -2.468028    -4.563036     2.300918
H    -1.529382    -4.803986     2.444137
H    -4.697558    -2.947103    -2.916150
O    -3.844960    -3.182636    -3.320437
H    -3.517586    -3.977192    -2.854056
H     0.334666     1.401060     4.604396
O     0.843050     2.159557     4.270429
H     0.893106     2.818725     4.977078
H    -4.667441    -5.135899    -1.586180
O    -5.369156    -4.779126    -1.014367
H    -5.159474    -5.133782    -0.129431
H     2.315460    -6.473495    -4.037481
O     1.977560    -6.142529    -3.185128
H     2.408489    -6.717198    -2.520276
H     0.465928    -3.364636    -4.010930
O     1.270559    -3.000190    -4.432620
H     0.954175    -2.629111    -5.282457
H     1.952809    -1.736015     2.978274
O     2.105378    -2.667547     2.761913
H     1.420147    -2.879638     2.093818
H    -3.012523    -1.782748    -3.224340
O    -2.588199    -0.897040    -3.159738
H    -3.241257    -0.250661    -3.482005
H    -3.119139     5.004371     1.129248
O    -3.895781     5.376933     0.648470
H    -4.314308     5.933235     1.354582
H     0.878567     2.273865     2.580690
O     0.981573     2.268055     1.609582
H     1.707047     1.642380     1.447842
H     0.212087     5.676626    -0.773698
O     0.734823     6.336844    -1.283539
H     0.881277     7.136105    -0.727490
H     0.360823     7.058104     2.574179
O    -0.000216     6.678484     1.755775
H     0.662017     6.004890     1.497559
H    -2.485903     0.247020     3.325501
O    -2.711004    -0.566108     3.830197
H    -1.952231    -0.607075     4.454033
H    -0.904823     0.583500     6.012634
O    -0.630488     0.062743     5.239099
H     0.080154    -0.543007     5.528185
H     0.690180    -4.974396     1.976903
O     0.145636    -5.081148     2.780195
H     0.286717    -6.001910     3.053772
H    -2.145411    -8.060451     0.441504
O    -1.822995    -7.572459     1.226682
H    -2.609188    -7.258665     1.681155
H    -0.343716     6.885020    -2.345672
O    -1.090804     7.303922    -2.846789
H    -1.876557     7.184203    -2.276867
H    -1.099141     4.333990     0.558001
O    -0.725826     4.394887    -0.338156
H    -1.431069     4.151607    -0.970672
H    -4.407647     2.785196     3.485040
O    -4.406610     2.956803     4.449131
H    -4.494359     2.074739     4.859502
H     2.003972    -3.564394     4.242380
O     1.936675    -4.035580     5.095862
H     2.444189    -3.500072     5.727159
H     4.676543    -3.189244     0.842634
O     4.518423    -3.113774    -0.124315
H     3.661207    -2.633986    -0.209934
H    -2.721024    -0.720719    -1.367069
O    -3.048838    -0.447711    -0.493737
H    -3.848231     0.078662    -0.702527
H    -1.608027    -0.740286    -4.644117
O    -1.099442    -0.525508    -5.447289
H    -0.387310     0.067672    -5.160940
H     1.797584    -1.704217    -3.381463
O     1.890752    -0.956555    -2.759389
H     1.115515    -0.377497    -2.892937
H     3.648136    -3.111627     2.551746
O     4.606569    -3.343671     2.480713
H     4.658030    -4.303835     2.608828
H     3.400134    -6.109384     3.126951
O     3.758357    -5.910521     2.227271
H     3.023093    -5.563136     1.682533
H    -3.329025     1.638054    -4.197788
O    -4.177208     1.172751    -4.009176
H    -4.394552     1.316384    -3.052277
H    -5.053349     4.144052     0.026821
O    -5.516278     3.293981    -0.060324
H    -6.439174     3.384871    -0.379513
H     6.734001    -1.185729    -1.356715
O     5.960558    -1.032873    -0.807439
H     5.538666    -1.899158    -0.609531
H     4.589366    -3.166699    -2.467360
O     3.722993    -2.992866    -2.885485
H     3.726011    -3.612734    -3.640787
H     4.415919    -2.282589     5.623569
O     4.069556    -2.746183     6.416310
H     4.401940    -3.652334     6.336484
H    -0.743473     6.365963     5.056716
O    -1.339318     6.943928     5.593177
H    -1.349070     7.820847     5.151415
H     4.702067    -0.133129    -1.466223
O     3.936876     0.411353    -1.731417
H     3.243392    -0.187663    -2.062088
H    -0.720157     4.539182    -4.054807
O    -1.498269     5.089196    -4.263501
H    -1.336357     5.955324    -3.843427
H     0.676508     3.219120    -2.670371
O     0.684076     3.595103    -3.579441
H     0.733389     2.830816    -4.163794
H    -5.404177    -5.153544     1.777780
O    -4.708694    -5.750604     1.424120
H    -3.867356    -5.337566     1.696597
H     7.885011    -1.701056    -4.025247
O     7.626158    -1.385897    -3.126551
H     7.142554    -0.540622    -3.285036
H     3.696136    -5.070491    -5.287041
O     4.458661    -4.698816    -4.804787
H     4.839846    -5.410529    -4.257508
H    -3.794569     0.055800     4.916663
O    -4.394999     0.522926     5.547033
H    -5.058035    -0.132448     5.838758
H     3.446255    -5.934554    -0.515849
O     4.320248    -5.690530    -0.832614
H     4.399655    -4.728400    -0.689545
H     5.008989    -0.337331    -4.159518
O     4.471543    -1.046833    -4.549834
H     4.142540    -1.628843    -3.832159
H    -1.159395     1.591679    -3.950382
O    -1.805764     2.216274    -4.337076
H    -1.445808     2.542542    -5.184668
H     4.869134    -6.321050    -2.308454
O     5.202747    -6.647824    -3.173101
H     6.018627    -7.131521    -2.984175
H     8.729829    -5.104625    -2.904637
O     8.035737    -5.519336    -2.347523
H     8.067524    -6.476911    -2.448316
H     2.353886     4.732074     0.441629
O     1.771273     4.717615     1.210284
H     1.412113     3.798074     1.289646
H    -4.432735    -2.595213     4.214816
O    -5.325182    -2.253206     4.009860
H    -5.184707    -1.472864     3.434307
H    -5.859310    -3.154210     1.298506
O    -6.325278    -3.709113     1.966179
H    -6.137252    -3.273675     2.816871
H     1.683585     3.491064     6.851978
O     1.063502     4.007997     6.316112
H     0.279892     4.164414     6.886172
H     4.986429    -2.161987     3.618848
O     5.007855    -1.442918     4.282071
H     4.198122    -0.884317     4.123232
H     2.361966    -5.559371     4.839384
O     2.739642    -6.444656     4.580924
H     1.993088    -7.024026     4.406175
H     2.256468    -4.511039    -6.791052
O     2.083907    -4.997842    -5.975211
H     1.820408    -4.305173    -5.321004
H     6.427318    -4.105507    -0.495734
O     7.178296    -4.510303    -0.030407
H     7.685705    -4.935716    -0.749549
H    -1.726522     4.524542     7.682489
O    -0.827739     4.620060     8.068916
H    -0.644086     5.578681     8.093569
H    -4.954225     5.624525    -5.785536
O    -4.384206     4.825797    -5.774397
H    -3.627578     4.989278    -6.362727
H     3.290938    -2.527893    -8.437640
O     3.199469    -3.058618    -7.635472
H     4.075441    -3.037447    -7.205089
H    -0.623257     8.850527    -2.301089
O    -0.504156     9.676722    -1.778908
H     0.257579     9.501266    -1.201418
H     2.052608    -0.893439     5.207111
O     1.476525    -1.416738     5.793528
H     1.569545    -1.071023     6.690700
H     5.210898    -2.028219    -5.690203
O     5.555515    -2.796218    -6.210616
H     5.278154    -3.584692    -5.692636
H     5.668192    -5.208739     4.693403
O     5.144471    -5.120875     5.518840
H     4.421312    -5.750918     5.432851
H    -3.985153     1.187682     6.987529
O    -3.792890     1.664012     7.830867
H    -4.668380     2.052928     8.089589
H    -1.816490     9.642222    -0.771850
O    -2.678146     9.513128    -0.298921
H    -3.287517     10.151530    -0.672958
H    -5.908158     4.757571    -3.093236
O    -6.822791     4.620178    -3.425318
H    -6.693629     3.880659    -4.069349
H     0.073180    -7.045908    -1.145319
O     0.534567    -7.482296    -0.396189
H    -0.146516    -7.674473     0.251474
H    -7.603109     3.740640    -2.103486
O    -7.874658     3.173813    -1.346650
H    -7.700898     2.264066    -1.695771
H     3.955805    -0.877644     6.985818
O     3.967441     0.086466     6.974946
H     4.781942     0.373055     6.545319
H     2.280155     5.807458    -1.192597
O     3.214077     5.512029    -1.075689
H     3.391152     4.970248    -1.867672
H     6.529338    -5.930946     0.682112
O     6.157105    -6.665456     1.215753
H     5.253112    -6.385022     1.440616
H    -3.869134     4.771758     7.757173
O    -3.302528     4.306379     7.099797
H    -3.499543     3.363802     7.211064
H     5.735449    -7.944952     0.148764
O     5.446620    -8.631863    -0.488534
H     4.619298    -8.304116    -0.884778
H    -0.567145     2.073165     7.679601
O    -1.198955     2.009752     6.943166
H    -2.068759     1.871647     7.338198
H    -6.385638    -0.079321     1.039490
O    -6.704592    -0.159655     0.125789
H    -7.623486    -0.430224     0.142012
H    -5.381000    -3.026393    -0.605343
O    -5.127695    -2.323140     0.018928
H    -5.695447    -1.549387    -0.171205
H     4.335440     5.584426     0.312539
O     4.667297     5.685304     1.218381
H     3.973436     6.198306     1.668474
H    -9.045343    -1.695096    -2.280070
O    -8.497452    -1.494997    -1.493641
H    -8.629387    -2.230292    -0.855265
H    -5.505057     3.499181    -5.552873
O    -6.033627     2.812044    -5.112888
H    -5.371401     2.214581    -4.709518
H     3.188798    -0.885510    -5.657665
O     2.333371    -1.002972    -6.125134
H     2.417174    -1.852905    -6.597354
H     8.122153    -1.363972    -6.021033
O     8.126408    -2.227301    -5.563318
H     7.269563    -2.624926    -5.815275
H     7.636780     0.977905    -6.305643
O     7.445762     0.129711    -6.718128
H     6.464385     0.082848    -6.756263
H    -7.875645    -3.644369     0.908048
O    -8.551294    -3.535113     0.221346
H    -8.455387    -4.296240    -0.378532
H    -2.378818     8.768797     1.269761
O    -2.233176     8.177859     2.021687
H    -1.463016     7.623390     1.802453
H    -4.432173     6.473901     3.469098
O    -4.594786     6.897143     2.609801
H    -3.832279     7.485193     2.476021
H     3.419110     3.451213    -3.584578
O     3.268045     4.421072    -3.492729
H     2.303795     4.488505    -3.602887
H    -6.114930    -1.568598    -3.462829
O    -6.200446    -2.145685    -2.677726
H    -6.985562    -1.836433    -2.171754
H     6.461268     1.054312     4.741363
O     6.067302     1.595308     5.442623
H     6.259274     2.512979     5.151155
H     1.379038     1.730684    -5.832068
O     1.180543     1.136779    -5.077318
H     1.542025     0.272117    -5.345048
H    -2.501127     3.004808     10.465690
O    -2.291172     2.096348     10.193431
H    -2.888442     1.897919     9.460371
H     7.619036    -0.499173     3.089526
O     6.870416     0.079082     3.255787
H     6.175601    -0.518561     3.634883
H    -5.685368    -8.015429    -0.712823
O    -4.951761    -8.085566    -0.065122
H    -4.954131    -7.267835     0.456139
H    -5.169077    -0.085710    -4.736140
O    -5.788031    -0.795692    -4.976239
H    -6.624795    -0.352072    -5.175876
H     1.904207    -0.193595    -7.520976
O     1.705536     0.278183    -8.365684
H     2.281993    -0.129705    -9.017366
H     4.885782    -1.400482    -9.302535
O     3.961928    -1.168861    -9.586869
H     3.943257    -1.288324    -10.535750
H     7.546332    -2.570666     4.208336
O     7.694583    -2.608132     3.249112
H     7.199640    -3.398050     2.977401
H     6.695211    -5.893886     2.695560
O     6.757652    -5.217798     3.395751
H     7.632363    -5.305216     3.815641
H    -1.799401     8.978772     3.473613
O    -1.551003     9.283930     4.371357
H    -2.399657     9.419703     4.826365
H    -7.375671     1.610938    -5.274151
O    -7.952207     0.867137    -5.031951
H    -8.853560     1.268863    -4.958851
H     6.939144    -1.096413    -8.399024
O     6.354888    -1.815545    -8.662814
H     6.124241    -2.263897    -7.830817
H    -1.631795     6.263683    -7.046355
O    -2.024039     5.435526    -6.774746
H    -1.784349     5.307936    -5.808340
H    -0.007161     3.343080     9.009447
O     0.186379     2.422924     9.265807
H    -0.613815     2.162058     9.771120
H     6.751812    -2.785389    -2.697765
O     6.217994    -3.527395    -2.357148
H     6.684467    -4.340107    -2.601362
H    -4.078622    -3.044464    -4.957838
O    -4.229946    -2.932087    -5.923132
H    -4.775479    -2.138061    -5.981443
H     1.969542     2.208935     8.456678
O     2.634946     2.318001     7.767527
H     3.054574     1.446208     7.654548
H    -6.923180    -5.158826    -1.412841
O    -7.839079    -5.425736    -1.659813
H    -7.969878    -5.024074    -2.543533
H    -3.822999     5.297574     5.672834
O    -3.785516     6.064126     5.079897
H    -2.851233     6.356208     5.177032
H    -7.881884     0.136893    -1.990212
O    -7.389055     0.857468    -2.405719
H    -7.615595     0.842910    -3.359458
H     5.836417     0.131656     0.413906
O     5.615538     0.854745     1.033354
H     6.123601     0.658910     1.847576
H    -6.219419     3.362448     7.370794
O    -6.094489     2.844395     8.200024
H    -6.697684     2.085422     8.111584
H     2.252013    -8.061800    -0.837604
O     2.930189    -8.052083    -1.532741
H     2.704297    -8.766393    -2.145234
H    -2.746268    -3.939206    -6.207510
O    -1.994673    -4.507266    -5.973663
H    -1.719514    -4.215949    -5.076084
H    -5.642367     3.808710     5.283957
O    -6.290683     4.207266     5.900349
H    -6.127515     5.151300     5.883637
H    -1.036874    -7.094039    -3.165737
O    -0.563308    -6.424843    -2.637742
H     0.345288    -6.359373    -3.016716
H     4.440094     2.029212     5.125857
O     3.499538     2.271780     5.003462
H     3.113588     2.290134     5.884627
H     4.111794     4.672551     6.294316
O     4.196533     5.401353     5.675165
H     3.629237     5.161861     4.903824
H     2.768336     3.634329     3.914784
O     2.594163     4.574721     3.746707
H     2.477043     4.672167     2.780051
H     9.395852     0.199077    -1.061887
O     8.588942     0.365084    -0.570830
H     8.409735    -0.452343    -0.076565
H    -2.105312     5.362741     10.630842
O    -2.829601     4.736629     10.861495
H    -3.049944     4.916301     11.775720
H     7.961606    -3.015068     0.337810
O     8.384781    -2.169303     0.592592
H     8.317383    -2.163064     1.554801
H     5.374832     3.672641     3.522108
O     6.031085     3.936990     4.188587
H     5.619911     4.656740     4.689164
H    -4.212643     5.070840     9.761027
O    -4.843127     5.222869     9.036992
H    -5.458317     4.476988     9.034610
H    -7.016061    -3.437940    -3.504493
O    -7.637885    -4.047801    -3.953501
H    -7.117137    -4.492897    -4.653992
H     0.026021     6.164671     10.754032
O    -0.837149     6.498014     10.504490
H    -0.718435     6.927529     9.638100
H     2.602123     1.502136    -4.111457
O     3.480697     1.853222    -3.871254
H     3.798368     1.337766    -3.099795
H    -6.989013    -0.163988     7.196493
O    -7.494892     0.616924     7.474778
H    -8.116607     0.801587     6.769705
H    -2.775226    -9.843960    -0.832086
O    -2.708642    -8.902744    -0.993099
H    -3.613818    -8.532982    -0.754655
H    -10.049319     3.132371    -4.932484
O    -10.166003     2.215689    -4.650814
H    -10.385511     2.300883    -3.701619
H    -2.087794    -2.989902     4.604441
O    -2.964352    -3.426858     4.672868
H    -2.958885    -4.045982     3.917696
H    -0.210763    -7.957692     2.486254
O     0.615446    -7.748971     2.935250
H     1.333904    -8.048352     2.350415
H     6.684556    -2.368731     6.399664
O     7.132307    -3.080564     5.937654
H     6.500021    -3.813411     5.899355
H    -5.293517    -1.954556     6.926750
O    -5.966908    -1.454729     6.440583
H    -5.950794    -1.833493     5.532239
H     0.859900     3.040972    -7.126934
O     1.776564     2.707480    -7.180333
H     1.762109     1.958910    -7.805026
H    -3.941323     8.801420     6.644094
O    -3.932011     8.797040     5.686833
H    -4.063942     7.870221     5.420114
H    -2.056826     10.327970    -2.768849
O    -2.959988     10.495780    -3.073471
H    -2.892031     11.146771    -3.771511
H     9.388262    -4.066762     4.058920
O     9.104671    -4.743062     4.681732
H     8.675677    -4.268237     5.404558
H    -0.744412    -5.981129    -5.843833
O    -0.043704    -6.549491    -5.507715
H     0.793933    -6.091530    -5.724561
H     1.850567     8.292099     0.646933
O     1.549545     8.612329    -0.232276
H     2.365805     8.647972    -0.760623
H     3.520989     2.930331    -6.668777
O     4.346763     2.638193    -6.257309
H     4.098962     2.366201    -5.348620
H     3.759027     7.132433    -1.241542
O     3.966809     8.067311    -1.456464
H     4.338674     8.008652    -2.348535
H     4.410255    -0.011937    -7.912713
O     4.785615     0.134469    -7.042568
H     4.607023     1.067448    -6.801046
H     6.037664     1.932949    -0.475302
O     6.604645     2.123502    -1.236528
H     7.427376     1.641389    -1.040706
H     6.657772    -8.435367    -1.592011
O     7.295627    -8.227774    -2.327800
H     7.660129    -9.063609    -2.613874
H    -5.311330    -5.756110    -5.419599
O    -5.925444    -5.082154    -5.736160
H    -5.371121    -4.316524    -5.973549
H     0.691284     7.203655     7.583437
O    -0.210722     7.234271     7.941378
H    -0.764999     7.249821     7.123166
H    -8.900319    -2.787195    -4.125092
O    -9.417191    -1.976067    -3.959323
H    -9.128971    -1.313929    -4.591273
H    -2.427313    -5.961397    -2.149566
O    -3.303575    -5.671681    -2.420697
H    -3.490580    -6.047603    -3.305978
H    -2.996802    -5.875612    -5.416955
O    -3.599769    -6.482270    -4.944750
H    -3.121305    -7.304175    -4.776056
H    -1.361406     3.742108    -7.003155
O    -0.828482     2.983845    -6.725966
H    -1.065328     2.198745    -7.276403
H    -0.187277     0.428448    -8.226663
O    -1.082811     0.667660    -7.944790
H    -1.261629     0.144922    -7.147082
H    -10.610806     3.959110    -2.707323
O    -10.606695     3.139173    -2.185667
H    -9.726137     3.139318    -1.769386
H     4.590345     4.088723     1.714478
O     4.377265     3.168787     1.992539
H     5.092273     2.589966     1.715017
H     6.498035     1.391874    -4.218165
O     6.191022     0.769945    -3.523985
H     6.222546     1.266264    -2.680707
H     9.626554    -2.238850    -0.917155
O     9.905578    -2.026383    -1.816656
H     9.107172    -1.685724    -2.262052
H     9.963453    -3.337779    -3.084166
O     9.695257    -3.989815    -3.758631
H     9.304920    -3.481893    -4.480484
H    -7.725003    -8.528958    -1.679241
O    -6.985115    -7.936964    -1.806698
H    -7.360035    -7.022838    -1.798648
H     4.188112     6.083034    -3.830653
O     4.850689     6.782674    -3.744500
H     5.685549     6.326729    -3.605412
H     0.079047    -8.156269    -5.213870
O     0.099174    -9.139006    -5.080540
H     0.250017    -9.504658    -5.952254
H    -2.357979    -8.647586    -2.718256
O    -2.121438    -8.385438    -3.627603
H    -1.476592    -9.006781    -3.984603
H     2.152852    -10.806981    -3.486462
O     2.109768    -9.852258    -3.463559
H     1.326199    -9.579697    -3.991560
H     6.855446     3.323022    -4.575252
O     6.912432     2.643485    -5.274845
H     6.120634     2.778594    -5.817462
H    -3.592881    -3.678060     7.709886
O    -3.703110    -2.890648     7.178402
H    -3.451023    -3.131946     6.260958
H    -0.636998    -3.347680    -6.730578
O    -0.004638    -2.618019    -6.737874
H    -0.484746    -1.840723    -6.398347
H     0.625551     0.492606     8.743878
O     0.631721    -0.222882     8.104050
H    -0.291351    -0.508813     8.015396
H    -5.696170     7.350555    -4.556836
O    -6.191777     6.745429    -5.134917
H    -6.532193     6.059706    -4.514490
H    -4.277826     9.185264    -3.175433
O    -4.819064     8.383206    -3.082495
H    -4.342258     7.868283    -2.397751
H    -9.771609     5.802146    -4.456382
O    -10.328215     4.988196    -4.459723
H    -11.142477     5.249581    -4.896993
H     2.778001     6.536959     6.127237
O     1.817981     6.636732     6.222204
H     1.471683     5.724188     6.121695
H     4.831173     8.553593     0.071970
O     5.145984     8.554389     0.993725
H     5.550807     7.689412     1.126647
H     4.125187    -7.424307    -4.334225
O     3.366997    -7.706994    -4.877489
H     3.083330    -8.546690    -4.501048
H     0.397262     8.686528     4.214061
O     1.072509     8.038791     3.987229
H     1.296690     7.546784     4.803110
H     5.254766     4.190891    -3.162533
O     6.215962     4.158407    -3.107724
H     6.421803     3.577024    -2.358952
H    -2.598482    -1.503577     7.561149
O    -2.085928    -0.711543     7.780313
H    -2.710074    -0.082947     8.153384
H    -8.573128     7.519100    -3.560269
O    -8.946683     7.339949    -4.443668
H    -8.150156     7.304600    -4.996036
H     3.496987    -8.968837     1.099913
O     2.822037    -8.334216     1.346167
H     3.298894    -7.530301     1.626330
H     3.606667     8.184768     1.814869
O     2.813246     7.624999     1.925766
H     2.367115     7.862543     2.751492
N    -7.482016     7.931560    -2.049886
H    -6.589915     8.225545    -2.307006
H    -7.340983     7.265487    -1.370201
