21
Coordinates from ORCA-job grain_mol_opt.QMRegion
  H   5.18624718825128     -2.04677464786780     -5.64111980020112
  O   5.54812803711705     -2.81352081518483     -6.15378399202340
  H   5.24524972958851     -3.60077760972493     -5.63699426943853
  H   8.14655628320478     -1.32841999571195     -5.85724842064362
  O   8.21497569931450     -2.24490261919508     -5.53074521835180
  H   7.33163429408014     -2.61460277852671     -5.72582198135391
  H   7.61278057531532      1.17933567087604     -6.07814153060096
  O   7.52482910332338      0.30083590770165     -6.47904050134440
  H   6.55037610797360      0.21781675530214     -6.65964761504372
  H   4.87100630721003     -1.56799811833131     -9.35738313881860
  O   4.01295767508033     -1.06416678776879     -9.49778316398305
  H   3.96477362163948     -0.88305285098449    -10.43835235479425
  H   6.95316206316907     -1.74750339247396     -8.99784036630881
  O   6.20660980157783     -2.38254487059684     -8.93893475918203
  H   6.11811528513852     -2.57245210242152     -7.98887875322962
  H   4.60595309487967      0.03312739732011     -7.92899137737380
  O   4.89187194538887      0.15975480229024     -7.00867402238284
  H   4.65154774753624      1.08533317363027     -6.78455484319307
  O   8.28331710812681     -0.55964412517388     -8.96988238300283
  H   9.12813172636397     -1.00404000603020     -8.85096389974628
  H   8.12913370008084     -0.08662278048730     -8.12211735677151
