603

H     0.205064     3.012820    -0.689264
O     0.727334     2.342753    -1.180809
H     1.666508     2.471691    -0.906770
H    -0.072888    -1.310300     3.157210
O     0.317998    -0.612622     2.608779
H    -0.157943     0.202323     2.840352
H    -2.394768     2.394560    -0.544041
O    -2.184181     1.927442     0.281728
H    -2.199480     0.978707     0.061040
H    -4.659531     0.542029     2.181611
O    -4.977496    -0.391058     2.197429
H    -4.471719    -0.871569     1.533851
H     0.066148    -0.321116     0.952964
O    -0.131998    -0.087448     0.025298
H     0.209352     0.808144    -0.097832
H    -0.151941    -3.578355     3.792523
O    -0.430920    -2.746624     4.209743
H     0.215307    -2.573443     4.910869
H    -4.882182     2.522622     1.321975
O    -4.243205     2.114610     1.938204
H    -3.400108     2.095217     1.426220
H    -3.243774     3.875947    -2.226426
O    -2.507344     3.277702    -1.994596
H    -2.148191     2.988376    -2.853037
H    -0.123811    -3.818385     0.518249
O     0.215569    -2.998839     0.932402
H    -0.571303    -2.511751     1.244108
H    -2.374955    -1.543765     2.477004
O    -2.187740    -2.013054     1.637350
H    -2.444636    -1.427462     0.906269
H     2.077167    -1.460305    -1.110386
O     2.307228    -1.713725    -0.192707
H     1.517201    -2.140175     0.190338
H    -1.385689     1.817932     1.906744
O    -1.479837     1.422822     2.783588
H    -1.463948     2.136959     3.446677
H     0.210633    -2.726636    -1.561592
O    -0.543233    -2.112346    -1.620367
H    -0.364681    -1.386308    -0.985437
H    -3.434207    -2.940418    -0.379031
O    -2.718544    -3.433341    -0.801627
H    -2.006798    -2.804420    -1.019239
H     2.776058     0.123307     2.933713
O     2.874148    -0.056191     3.896186
H     2.966498     0.837953     4.297802
H    -3.524332     6.364873    -0.564640
O    -3.286035     7.024425    -1.267692
H    -3.143381     7.871374    -0.800858
H     3.905123     0.571839     1.184677
O     2.954425     0.390938     1.301763
H     2.717365    -0.364137     0.725767
H    -5.778678     0.824468    -1.605422
O    -4.867917     1.151966    -1.482014
H    -4.977975     1.982535    -0.973438
H    -1.206671     5.390818     2.191217
O    -1.831941     4.643371     2.077357
H    -1.909588     4.227970     2.941489
H     3.497011     2.748286     0.415635
O     3.246597     2.701509    -0.522664
H     3.581988     1.858983    -0.871090
H     1.486400    -4.715362    -2.237400
O     1.556551    -3.941734    -1.660077
H     2.352641    -3.484698    -2.012676
H    -0.918668    -0.105499    -2.540296
O    -0.283845     0.541942    -2.872924
H    -0.020632     1.130212    -2.140949
H     1.700239    -4.702553    -0.162635
O     1.805498    -5.336296     0.583602
H     1.343054    -6.148564     0.289996
H    -1.217180    -3.286682    -2.873584
O    -1.057828    -3.964001    -3.545020
H    -0.914191    -4.810346    -3.077707
H    -2.776143     3.312185     4.693856
O    -1.794972     3.308659     4.659429
H    -1.502044     2.909997     5.497150
H     0.966924     5.034126     4.058114
O     0.020853     5.266620     4.109687
H    -0.450992     4.464441     4.370806
H    -1.730677    -4.666818    -0.354512
O    -0.965878    -5.206675    -0.067513
H    -1.313043    -5.890731     0.514270
H    -3.913734     5.809467    -2.617128
O    -4.264085     4.974277    -2.944772
H    -4.109235     4.937036    -3.912840
H    -2.429421    -3.696473     1.951162
O    -2.448256    -4.599756     2.328983
H    -1.508476    -4.837488     2.470902
H    -4.695705    -3.003146    -2.885940
O    -3.844439    -3.238739    -3.293356
H    -3.511911    -4.028955    -2.822736
H     0.343012     1.378467     4.610924
O     0.848334     2.137444     4.273706
H     0.898681     2.798680     4.978362
H    -4.654439    -5.189355    -1.550016
O    -5.356615    -4.833259    -0.978477
H    -5.143892    -5.183883    -0.092552
H     2.325544    -6.513368    -4.015355
O     1.986854    -6.182093    -3.163556
H     2.422567    -6.751706    -2.497579
H     0.406125    -3.344669    -4.050320
O     1.311662    -3.087064    -4.324299
H     1.205300    -2.459651    -5.056325
H     1.966773    -1.758127     2.988690
O     2.120481    -2.690099     2.775007
H     1.434836    -2.905404     2.108529
H    -3.018595    -1.836095    -3.199142
O    -2.589348    -0.952027    -3.143749
H    -3.239520    -0.303489    -3.469203
H    -3.185852     4.966013     1.063275
O    -3.967765     5.337620     0.607506
H    -4.382364     5.898533     1.311729
H     0.879803     2.247618     2.583060
O     0.979850     2.238664     1.611791
H     1.707587     1.615596     1.450036
H     0.195085     5.639483    -0.777721
O     0.715746     6.299183    -1.290038
H     0.859546     7.100958    -0.737406
H     0.348673     7.030332     2.565823
O    -0.014061     6.646697     1.750157
H     0.650018     5.975290     1.490842
H    -2.477109     0.213393     3.341393
O    -2.699003    -0.599068     3.848816
H    -1.938478    -0.636288     4.470845
H    -0.890590     0.560962     6.024015
O    -0.617268     0.038398     5.251411
H     0.096471    -0.563991     5.540105
H     0.710482    -5.002686     1.998715
O     0.167388    -5.109151     2.803161
H     0.312504    -6.028521     3.079235
H    -2.120304    -8.100593     0.478041
O    -1.797307    -7.609916     1.261171
H    -2.583012    -7.297144     1.717153
H    -0.375018     6.840605    -2.349921
O    -1.121856     7.258156    -2.850845
H    -1.911301     7.134984    -2.285890
H    -1.109197     4.297121     0.559417
O    -0.736889     4.354044    -0.337270
H    -1.443960     4.111060    -0.968218
H    -4.405527     2.746939     3.498703
O    -4.403925     2.920783     4.462591
H    -4.487301     2.039269     4.874955
H     2.025621    -3.583247     4.257573
O     1.961337    -4.052343     5.112480
H     2.469519    -3.514076     5.740940
H     4.689716    -3.209364     0.850326
O     4.528413    -3.137426    -0.116193
H     3.669886    -2.659871    -0.200465
H    -2.720872    -0.767422    -1.348064
O    -3.048394    -0.493735    -0.475323
H    -3.848385     0.032265    -0.683801
H    -1.533561    -0.851910    -4.505722
O    -1.008765    -0.672455    -5.311161
H    -0.331423    -0.033260    -5.023592
H     1.806472    -1.753384    -3.333307
O     1.893710    -0.983662    -2.738624
H     1.111765    -0.415259    -2.878803
H     3.664488    -3.130449     2.561872
O     4.623383    -3.359843     2.489719
H     4.678166    -4.319518     2.619666
H     3.426154    -6.127192     3.145120
O     3.781361    -5.930185     2.243951
H     3.044076    -5.585526     1.700175
H    -3.342769     1.582197    -4.181389
O    -4.185989     1.109849    -3.989075
H    -4.404757     1.260131    -3.033042
H    -5.078068     4.135151     0.053666
O    -5.516951     3.268906    -0.047864
H    -6.447684     3.387925    -0.328398
H     6.734995    -1.205025    -1.361562
O     5.964448    -1.054002    -0.807517
H     5.545218    -1.920914    -0.607664
H     4.594970    -3.196416    -2.458184
O     3.726822    -3.026214    -2.874110
H     3.729483    -3.648565    -3.627866
H     4.436910    -2.291125     5.629642
O     4.093588    -2.753951     6.424265
H     4.428913    -3.659156     6.345884
H    -0.748015     6.341551     5.052885
O    -1.344480     6.919540     5.588960
H    -1.357487     7.795041     5.144386
H     4.704250    -0.157584    -1.464360
O     3.937013     0.385279    -1.726656
H     3.243967    -0.215458    -2.054435
H    -0.738903     4.494735    -4.052884
O    -1.522578     5.035840    -4.262361
H    -1.371044     5.904475    -3.843507
H     0.663180     3.178370    -2.669598
O     0.667412     3.550832    -3.580005
H     0.719353     2.786077    -4.162954
H    -5.383684    -5.199455     1.815110
O    -4.687576    -5.795311     1.460661
H    -3.846564    -5.379556     1.730298
H     7.880533    -1.724774    -4.030345
O     7.622981    -1.408421    -3.130718
H     7.137515    -0.564527    -3.291267
H     3.690694    -5.111899    -5.275686
O     4.449910    -4.736318    -4.792888
H     4.839279    -5.445235    -4.248056
H    -3.781184     0.022720     4.936206
O    -4.381630     0.489459     5.567043
H    -5.041936    -0.167220     5.861807
H     3.463029    -5.961291    -0.498525
O     4.335887    -5.716201    -0.817380
H     4.413239    -4.753424    -0.677279
H     5.000807    -0.366520    -4.163131
O     4.457616    -1.078032    -4.541701
H     4.147935    -1.663167    -3.818429
H    -1.166230     1.539666    -3.945350
O    -1.819886     2.153147    -4.336320
H    -1.458971     2.491673    -5.178873
H     4.883014    -6.348458    -2.293945
O     5.214458    -6.677616    -3.158476
H     6.033034    -7.157108    -2.970519
H     8.738312    -5.121262    -2.902571
O     8.047624    -5.537523    -2.341933
H     8.082202    -6.495022    -2.441544
H     2.342521     4.705153     0.434253
O     1.762918     4.690113     1.205306
H     1.405641     3.770172     1.286461
H    -4.413844    -2.631937     4.242817
O    -5.307796    -2.293056     4.039021
H    -5.170749    -1.513698     3.461193
H    -5.845456    -3.202844     1.331763
O    -6.308684    -3.757199     2.001890
H    -6.119567    -3.319005     2.850978
H     1.691794     3.477853     6.849772
O     1.068720     3.991461     6.314189
H     0.286175     4.147249     6.885624
H     5.002588    -2.173977     3.623432
O     5.023196    -1.453456     4.285125
H     4.211800    -0.897287     4.126291
H     2.390603    -5.575463     4.858927
O     2.770000    -6.460497     4.602062
H     2.024667    -7.042324     4.430405
H     2.262264    -4.672170    -6.774162
O     2.106574    -5.107135    -5.925847
H     1.808815    -4.380860    -5.324847
H     6.439814    -4.123569    -0.490988
O     7.192037    -4.526148    -0.025653
H     7.699460    -4.951316    -0.745021
H    -1.719305     4.504303     7.685466
O    -0.820333     4.603367     8.070276
H    -0.638841     5.562526     8.091025
H    -5.116342     5.660412    -5.614860
O    -4.509267     4.896362    -5.633115
H    -3.751864     5.109025    -6.199673
H     3.369805    -2.664736    -8.478427
O     3.265281    -3.151075    -7.639521
H     4.160395    -3.136713    -7.245893
H    -0.654667     8.803816    -2.310834
O    -0.531703     9.633888    -1.794763
H     0.231012     9.461597    -1.217884
H     2.068892    -0.909727     5.214869
O     1.495501    -1.432824     5.804224
H     1.590409    -1.084758     6.700260
H     5.203292    -2.061291    -5.692283
O     5.553585    -2.832510    -6.201712
H     5.271967    -3.618749    -5.685092
H     5.695655    -5.216045     4.703999
O     5.173513    -5.127705     5.530459
H     4.451982    -5.759999     5.447516
H    -3.970314     1.159150     7.004522
O    -3.777770     1.638019     7.846443
H    -4.653579     2.025086     8.106117
H    -1.845666     9.597708    -0.780670
O    -2.706136     9.473246    -0.305667
H    -3.316945     10.101012    -0.695268
H    -5.945710     4.666796    -2.953574
O    -6.854676     4.546525    -3.296628
H    -6.765194     3.841853    -3.971213
H     0.090506    -7.081826    -1.117674
O     0.554567    -7.517536    -0.370331
H    -0.123352    -7.709090     0.280832
H    -7.635340     3.772837    -1.984219
O    -7.896719     3.188545    -1.242053
H    -7.754015     2.278658    -1.578233
H     3.976631    -0.883888     6.989040
O     3.985461     0.080224     6.976312
H     4.797734     0.368280     6.543378
H     2.262218     5.775529    -1.202002
O     3.197241     5.482630    -1.085995
H     3.374348     4.940084    -1.877583
H     6.549501    -5.945930     0.691897
O     6.180682    -6.680025     1.228753
H     5.276310    -6.401682     1.454427
H    -3.862740     4.745324     7.764855
O    -3.296705     4.279787     7.107252
H    -3.490271     3.336867     7.221601
H     5.759948    -7.963713     0.166451
O     5.470770    -8.653657    -0.467429
H     4.642542    -8.328261    -0.863620
H    -0.552873     2.055958     7.686310
O    -1.186519     1.988738     6.951792
H    -2.054828     1.849063     7.349383
H    -6.380606    -0.128797     1.065131
O    -6.701960    -0.216467     0.152912
H    -7.621014    -0.485929     0.173539
H    -5.372871    -3.078546    -0.573858
O    -5.119280    -2.373771     0.048343
H    -5.689712    -1.601529    -0.140789
H     4.322167     5.561708     0.298259
O     4.655675     5.665705     1.203231
H     3.961437     6.178220     1.653289
H    -9.044877    -1.763874    -2.242327
O    -8.495146    -1.560416    -1.458193
H    -8.623320    -2.293859    -0.816903
H    -5.523765     3.438951    -5.537580
O    -6.040833     2.728882    -5.121215
H    -5.374542     2.145435    -4.704866
H     3.214677    -0.974732    -5.567218
O     2.370627    -1.153778    -6.046853
H     2.603766    -1.896415    -6.652180
H     8.112555    -1.391821    -6.026730
O     8.121404    -2.252191    -5.563196
H     7.265941    -2.653976    -5.814616
H     7.611363     0.948895    -6.322416
O     7.422527     0.096112    -6.725893
H     6.440451     0.046844    -6.769910
H    -7.861358    -3.699483     0.948256
O    -8.539517    -3.594841     0.263229
H    -8.442454    -4.357314    -0.334688
H    -2.401722     8.728244     1.261273
O    -2.251165     8.142351     2.016414
H    -1.481061     7.588298     1.795704
H    -4.438597     6.436498     3.474691
O    -4.609003     6.858937     2.616431
H    -3.845561     7.444293     2.474343
H     3.402881     3.417284    -3.591413
O     3.248698     4.386713    -3.500153
H     2.284395     4.451642    -3.609630
H    -6.117829    -1.629132    -3.432955
O    -6.199754    -2.206391    -2.647676
H    -6.983242    -1.897659    -2.138693
H     6.470907     1.049259     4.733979
O     6.077137     1.590856     5.434939
H     6.265597     2.508316     5.140386
H     1.364116     1.685880    -5.834441
O     1.177719     1.086110    -5.079998
H     1.554568     0.231191    -5.350116
H    -2.483324     2.989843     10.474265
O    -2.271796     2.081054     10.204375
H    -2.869801     1.879002     9.472922
H     7.629356    -0.504915     3.082810
O     6.879576     0.071401     3.250578
H     6.187450    -0.527481     3.632270
H    -5.662771    -8.068747    -0.667296
O    -4.927358    -8.135092    -0.021344
H    -4.930734    -7.316123     0.498003
H    -5.179493    -0.148341    -4.711007
O    -5.795227    -0.861083    -4.951640
H    -6.634139    -0.420107    -5.148572
H     1.838343    -0.201574    -7.472397
O     1.371391     0.213257    -8.228268
H     1.350494    -0.485689    -8.902491
H     5.003743    -1.455907    -9.321102
O     4.060098    -1.198411    -9.479607
H     3.975862    -1.120476    -10.433054
H     7.564827    -2.574225     4.207823
O     7.711063    -2.613726     3.248413
H     7.217649    -3.405514     2.979489
H     6.719702    -5.903332     2.704980
O     6.781598    -5.225912     3.404015
H     7.657819    -5.309394     3.821499
H    -1.814627     8.947323     3.464250
O    -1.566563     9.255332     4.361333
H    -2.415133     9.389981     4.816580
H    -7.390905     1.536860    -5.252959
O    -7.965553     0.793466    -5.005237
H    -8.867179     1.193847    -4.929958
H     6.939975    -1.135456    -8.389871
O     6.389545    -1.880729    -8.652381
H     6.132665    -2.305233    -7.816779
H    -1.675442     6.199656    -7.045877
O    -2.074613     5.376633    -6.767461
H    -1.824831     5.249985    -5.803649
H     0.006447     3.330896     9.011467
O     0.202967     2.411966     9.269929
H    -0.595260     2.150228     9.777772
H     6.754196    -2.807707    -2.697210
O     6.224077    -3.550579    -2.351780
H     6.691832    -4.362293    -2.596680
H    -4.083204    -3.103549    -4.927443
O    -4.234071    -2.993258    -5.893527
H    -4.783760    -2.201825    -5.952179
H     1.985098     2.200445     8.457163
O     2.648479     2.309924     7.766187
H     3.070467     1.439137     7.654037
H    -6.910424    -5.217934    -1.371224
O    -7.826258    -5.488058    -1.615212
H    -7.960764    -5.088809    -2.499329
H    -3.821798     5.265903     5.679379
O    -3.789016     6.031812     5.085298
H    -2.854901     6.326324     5.177977
H    -7.885282     0.070088    -1.962195
O    -7.394841     0.791197    -2.379288
H    -7.624526     0.777089    -3.332071
H     5.838840     0.114114     0.410290
O     5.616528     0.837432     1.028956
H     6.127672     0.645538     1.842048
H    -6.210257     3.328875     7.386808
O    -6.082258     2.813765     8.217386
H    -6.682961     2.052434     8.132417
H     2.274874    -8.093208    -0.810907
O     2.950888    -8.083064    -1.507987
H     2.725728    -8.799587    -2.118042
H    -2.835511    -4.012282    -6.085780
O    -2.046993    -4.550932    -5.893445
H    -1.771785    -4.275758    -4.987281
H    -5.639250     3.770838     5.298088
O    -6.288161     4.170036     5.913763
H    -6.123744     5.113887     5.897150
H    -1.021058    -7.137811    -3.137364
O    -0.551824    -6.460799    -2.616053
H     0.359155    -6.398579    -2.990918
H     4.448131     2.019586     5.120372
O     3.506455     2.258845     4.999931
H     3.122838     2.278731     5.882031
H     4.115088     4.664975     6.282624
O     4.195531     5.392941     5.661926
H     3.627683     5.149550     4.892128
H     2.769110     3.616855     3.908992
O     2.591330     4.556291     3.739461
H     2.471963     4.651211     2.772680
H     9.392912     0.187398    -1.076224
O     8.588706     0.353148    -0.580565
H     8.412347    -0.464433    -0.085644
H    -2.093616     5.349312     10.632229
O    -2.815865     4.722030     10.866328
H    -3.033767     4.903047     11.780875
H     7.972346    -3.027344     0.336844
O     8.393755    -2.179939     0.588846
H     8.328507    -2.171349     1.551118
H     5.374866     3.661453     3.509799
O     6.031158     3.928913     4.175144
H     5.619308     4.649537     4.673775
H    -4.202103     5.049277     9.768345
O    -4.835479     5.197457     9.045981
H    -5.447652     4.449098     9.046970
H    -7.013878    -3.502035    -3.467282
O    -7.634874    -4.115016    -3.913509
H    -7.114887    -4.560758    -4.613714
H     0.035294     6.157183     10.748438
O    -0.829274     6.487896     10.500197
H    -0.713633     6.915024     9.632165
H     2.591496     1.464326    -4.107897
O     3.468583     1.818812    -3.869885
H     3.791106     1.305812    -3.099049
H    -6.969464    -0.200323     7.224635
O    -7.477527     0.579556     7.502019
H    -8.100934     0.760490     6.797485
H    -2.747093    -9.889128    -0.789881
O    -2.684481    -8.948230    -0.954327
H    -3.589845    -8.580717    -0.713628
H    -10.068623     3.048079    -4.905061
O    -10.185295     2.131743    -4.620424
H    -10.401098     2.220033    -3.671017
H    -2.066763    -3.019386     4.627957
O    -2.942136    -3.458436     4.699478
H    -2.936506    -4.079679     3.946093
H    -0.180473    -7.987467     2.517513
O     0.645945    -7.775180     2.964376
H     1.364237    -8.073770     2.378868
H     6.707854    -2.368682     6.400214
O     7.156653    -3.080796     5.939672
H     6.526170    -3.815326     5.904323
H    -5.270016    -1.986904     6.955112
O    -5.946308    -1.490511     6.469404
H    -5.930771    -1.871281     5.561856
H     0.832780     2.995957    -7.124374
O     1.750342     2.663644    -7.177024
H     1.734574     1.924859    -7.807588
H    -3.946834     8.771691     6.641226
O    -3.945789     8.765469     5.683873
H    -4.071372     7.836818     5.420191
H    -2.054852     10.290438    -2.775784
O    -2.956574     10.470955    -3.078070
H    -2.884926     11.102518    -3.793103
H     9.410778    -4.065615     4.057067
O     9.130756    -4.740802     4.682717
H     8.702171    -4.264972     5.405115
H    -0.740445    -6.036583    -5.817743
O    -0.034910    -6.597554    -5.481257
H     0.799050    -6.135096    -5.704841
H     1.831005     8.262995     0.631832
O     1.527217     8.581143    -0.246952
H     2.341711     8.616591    -0.778026
H     3.501662     2.892500    -6.674384
O     4.328262     2.606219    -6.262008
H     4.082748     2.329185    -5.355131
H     3.737476     7.103916    -1.258329
O     3.942927     8.038753    -1.475860
H     4.312443     7.978405    -2.368877
H     4.372963    -0.093279    -7.908940
O     4.756967     0.082203    -7.043929
H     4.577296     1.017661    -6.824890
H     6.032617     1.913539    -0.483911
O     6.597336     2.104205    -1.246639
H     7.421763     1.624418    -1.052388
H     6.679150    -8.456549    -1.575338
O     7.314205    -8.248952    -2.313307
H     7.680795    -9.084222    -2.598318
H    -5.306937    -5.821404    -5.380134
O    -5.922884    -5.150203    -5.698974
H    -5.371972    -4.382902    -5.937695
H     0.690230     7.189491     7.573837
O    -0.211141     7.218899     7.933668
H    -0.767024     7.230718     7.116420
H    -8.901243    -2.858014    -4.085550
O    -9.420708    -2.048387    -3.920957
H    -9.134925    -1.386172    -4.553986
H    -2.411071    -6.006433    -2.119285
O    -3.290240    -5.721699    -2.387011
H    -3.480170    -6.103054    -3.268719
H    -2.991587    -5.939110    -5.384786
O    -3.592225    -6.543421    -4.908665
H    -3.111524    -7.363118    -4.734157
H    -1.393910     3.687822    -6.996185
O    -0.854689     2.931035    -6.727155
H    -1.123654     2.134281    -7.248509
H    -0.415532     0.408962    -7.998702
O    -1.361135     0.615242    -7.832324
H    -1.543780     0.162825    -6.993672
H    -10.421830     4.034613    -2.743838
O    -10.488948     3.257609    -2.173397
H    -9.659770     3.233350    -1.664107
H     4.584056     4.070740     1.703366
O     4.375203     3.151008     1.985581
H     5.090564     2.573546     1.706085
H     6.484427     1.362387    -4.229124
O     6.181411     0.742610    -3.530736
H     6.214022     1.242729    -2.690069
H     9.631535    -2.248758    -0.925154
O     9.908062    -2.037430    -1.825623
H     9.107434    -1.701316    -2.270827
H     9.966411    -3.352448    -3.090723
O     9.697908    -4.007713    -3.761815
H     9.304199    -3.503180    -4.484460
H    -7.702725    -8.591093    -1.626757
O    -6.965312    -7.997085    -1.759156
H    -7.343013    -7.084128    -1.751430
H     4.163128     6.049685    -3.846477
O     4.824012     6.751226    -3.762494
H     5.660326     6.297159    -3.625805
H     0.093263    -8.205071    -5.182318
O     0.113136    -9.187216    -5.046919
H     0.266410    -9.554927    -5.917359
H    -2.338492    -8.696057    -2.680284
O    -2.105930    -8.435837    -3.591283
H    -1.459560    -9.055757    -3.948094
H     2.177031    -10.845665    -3.453094
O     2.129871    -9.891122    -3.431512
H     1.344432    -9.622395    -3.958308
H     6.834923     3.296106    -4.591348
O     6.893517     2.613171    -5.287046
H     6.100354     2.741506    -5.829767
H    -3.562071    -3.703491     7.738788
O    -3.676797    -2.918032     7.205357
H    -3.425673    -3.160827     6.288020
H    -0.761640    -3.462812    -6.748135
O    -0.128971    -2.747772    -6.935749
H    -0.493002    -1.991468    -6.434329
H     0.646534     0.481726     8.751702
O     0.653206    -0.235722     8.114094
H    -0.269251    -0.524322     8.028092
H    -5.831451     7.341675    -4.276771
O    -6.334968     6.720490    -4.834792
H    -6.622511     5.992797    -4.240053
H    -4.275222     9.079460    -3.296375
O    -4.811020     8.283833    -3.186578
H    -4.402529     7.807550    -2.445623
H    -9.710660     5.770708    -4.662656
O    -10.244142     4.966692    -4.496183
H    -11.125129     5.167278    -4.814133
H     2.775341     6.524984     6.114378
O     1.815314     6.622400     6.212356
H     1.471306     5.708829     6.113696
H     4.808533     8.531580     0.048711
O     5.125854     8.535873     0.969700
H     5.533228     7.672239     1.103639
H     4.136820    -7.458838    -4.315443
O     3.376908    -7.744924    -4.854709
H     3.098464    -8.585145    -4.475663
H     0.384066     8.663045     4.201236
O     1.061034     8.016948     3.975133
H     1.288053     7.527407     4.791649
H     5.236563     4.161539    -3.176489
O     6.197880     4.134848    -3.121302
H     6.407130     3.553866    -2.373271
H    -2.574884    -1.526739     7.581883
O    -2.064036    -0.732844     7.798186
H    -2.689080    -0.104843     8.170701
H    -9.025477     7.912825    -4.172168
O    -8.962948     7.324359    -4.925993
H    -8.006002     7.160061    -5.061499
H     3.526342    -8.991223     1.124884
O     2.849927    -8.358276     1.371551
H     3.325196    -7.552123     1.648255
H     3.589857     8.163747     1.795756
O     2.798776     7.601503     1.911015
H     2.353679     7.840733     2.736703
N     0.783277    -2.221594    -9.468454
H     0.056460    -2.229561    -10.096469
H     0.371137    -2.463862    -8.606889
