33
Coordinates from ORCA-job grain_mol_opt.QMRegion
  H   -0.19971009523200     -3.43288359483649      3.75010107040424
  O   -0.52653939965715     -2.64584746144540      4.21427092268133
  H   0.15523916109656     -2.42872509820470      4.87226418161282
  H   -2.49178752443345     -3.61027210538039      1.88025247192018
  O   -2.53674071055814     -4.49663960810690      2.30425062972617
  H   -1.60876283735438     -4.81582308854918      2.33136974729977
  H   1.93624218412990     -1.72322472040252      2.92135560658056
  O   2.06056058592438     -2.67489877423041      2.79012816058146
  H   1.42109947398808     -2.89620254810497      2.08174567018483
  H   0.68310228684016     -5.09877239766194      1.90113740323512
  O   0.12786379475911     -5.09432929823576      2.70907443661268
  H   0.23646248619208     -6.00690989345657      3.03736313026179
  H   1.98946680623493     -3.60882022420894      4.33457173069930
  O   1.96857002862845     -4.07028916048056      5.19947022097646
  H   2.48749597851210     -3.48548253433142      5.78908040096390
  H   2.39331816915230     -5.64544409606669      4.88975254855101
  O   2.76105548326122     -6.52811235258816      4.63241380094527
  H   2.01028584999024     -7.11431521960440      4.49880197105261
  H   2.01499749949415     -0.76219577732781      5.28395075572157
  O   1.47258711952955     -1.32051390275541      5.87444047897490
  H   1.48291732794174     -0.90778213221062      6.75704301546394
  H   -2.23053831984828     -2.93664931498618      4.61356632870800
  O   -3.02479521550104     -3.49972042113978      4.72540989347690
  H   -2.99884501832557     -4.03630690656431      3.89812080483449
  H   -0.24520113182802     -8.05406885214960      2.42664900632983
  O   0.58989193429097     -7.87297212840651      2.87692525206666
  H   1.29084929556996     -8.13169127639545      2.24719229216251
  H   -3.76188458059633     -3.55184500881601      7.86224967916119
  O   -3.78358783890599     -2.84468827748615      7.21778674010272
  H   -3.56879351609261     -3.24064601019274      6.34517164080799
  O   -0.61196994599512     -5.46508470929095      5.73205228732347
  H   0.18092673864543     -4.90852716299633      5.72635325595673
  H   -1.33200297937618     -4.84609481194201      5.56063706229320
