36

H    -3.700979     0.040414     4.915762
O    -4.265803     0.507630     5.583883
H    -5.025448    -0.079798     5.739906
H    -4.000893     1.207324     7.127620
O    -3.939161     1.832518     7.886583
H    -4.867008     2.190633     8.009404
H    -0.614959     2.148991     7.668819
O    -1.212567     1.969720     6.924422
H    -2.061675     1.754383     7.322921
H    -2.616073     3.041978     10.476941
O    -2.423290     2.143863     10.148144
H    -2.996497     2.033310     9.353921
H    -0.057955     3.421392     8.977440
O     0.217000     2.515324     9.236015
H    -0.554043     2.214902     9.750519
H    -6.397920     3.380948     7.322735
O    -6.321618     2.862739     8.163464
H    -6.925403     2.107679     8.032729
H    -7.236013    -0.210171     7.136994
O    -7.756041     0.480561     7.590506
H    -8.541147     0.585967     7.045949
H    -5.368427    -1.909595     6.831559
O    -6.071673    -1.430444     6.355780
H    -6.022607    -1.832981     5.457946
H    -3.643377    -3.617692     7.634411
O    -3.651231    -2.820671     7.096792
H    -3.406328    -3.134475     6.197393
H     0.815192     0.529871     8.289846
O     0.894842    -0.426212     8.205185
H    -0.035660    -0.720689     8.156182
H    -2.393010    -1.470412     7.664884
O    -1.871104    -0.788348     8.113053
H    -2.234519    -0.766479     9.018492
N    -2.870507    -0.504006     10.742126
H    -3.818873    -0.654176     10.791696
H    -2.777571     0.470670     10.777382
