603

H     0.206378     3.037381    -0.658480
O     0.727970     2.367924    -1.151598
H     1.667448     2.497136    -0.880448
H    -0.062341    -1.294956     3.178350
O     0.328969    -0.595698     2.632406
H    -0.148061     0.218466     2.864759
H    -2.392555     2.417738    -0.508518
O    -2.180318     1.947910     0.315521
H    -2.197093     0.999876     0.091434
H    -4.651062     0.558619     2.216672
O    -4.967584    -0.375070     2.232870
H    -4.465419    -0.853342     1.564885
H     0.073240    -0.299798     0.977049
O    -0.126776    -0.064589     0.050432
H     0.212450     0.831824    -0.072478
H    -0.139605    -3.564240     3.808521
O    -0.417559    -2.733965     4.229429
H     0.231231    -2.562568     4.928506
H    -4.876167     2.540975     1.362810
O    -4.235554     2.131490     1.976570
H    -3.393971     2.113474     1.461787
H    -3.246570     3.902873    -2.184740
O    -2.508787     3.305731    -1.954673
H    -2.152173     3.017009    -2.814803
H    -0.118059    -3.796834     0.534376
O     0.223006    -2.978956     0.950582
H    -0.563505    -2.491629     1.262988
H    -2.366046    -1.526875     2.502110
O    -2.178979    -1.994450     1.661862
H    -2.438658    -1.408581     0.931706
H     2.076437    -1.438364    -1.098767
O     2.310211    -1.690029    -0.181490
H     1.521787    -2.116847     0.204720
H    -1.379755     1.834275     1.937516
O    -1.469324     1.437971     2.814467
H    -1.453246     2.151791     3.477893
H     0.210855    -2.698439    -1.541507
O    -0.544975    -2.086952    -1.594885
H    -0.363748    -1.359356    -0.962907
H    -3.431992    -2.917884    -0.354116
O    -2.715534    -3.410997    -0.775021
H    -2.005920    -2.780799    -0.996528
H     2.785696     0.139089     2.952189
O     2.886685    -0.042148     3.914041
H     2.979727     0.851484     4.316904
H    -3.523072     6.387586    -0.518872
O    -3.286128     7.048937    -1.220722
H    -3.143070     7.894773    -0.752032
H     3.911008     0.591739     1.201001
O     2.960839     0.409771     1.320042
H     2.722097    -0.342832     0.741548
H    -5.778609     0.849219    -1.567689
O    -4.867768     1.176203    -1.443508
H    -4.977387     2.005645    -0.933212
H    -1.199348     5.408231     2.229794
O    -1.824125     4.660431     2.115652
H    -1.900447     4.243968     2.979297
H     3.501397     2.769926     0.437980
O     3.250917     2.725564    -0.500446
H     3.582753     1.882575    -0.850616
H     1.491309    -4.693544    -2.222575
O     1.557340    -3.915579    -1.650561
H     2.351202    -3.455025    -2.004225
H    -0.921652    -0.081121    -2.521017
O    -0.287873     0.570450    -2.847598
H    -0.025611     1.154077    -2.112303
H     1.704176    -4.679229    -0.151606
O     1.812380    -5.315160     0.591866
H     1.348334    -6.126706     0.297870
H    -1.227761    -3.262332    -2.847588
O    -1.056087    -3.946861    -3.507622
H    -0.928722    -4.793086    -3.037665
H    -2.762677     3.324772     4.730763
O    -1.781539     3.319917     4.694146
H    -1.486737     2.921221     5.530716
H     0.979305     5.047535     4.090960
O     0.033377     5.279576     4.144422
H    -0.438160     4.477314     4.405372
H    -1.726007    -4.643692    -0.335994
O    -0.960393    -5.184203    -0.051773
H    -1.306856    -5.870335     0.527971
H    -3.916680     5.836720    -2.572153
O    -4.268216     5.002203    -2.900130
H    -4.115548     4.966201    -3.868618
H    -2.420677    -3.678833     1.971902
O    -2.438516    -4.582055     2.350149
H    -1.498387    -4.820572     2.487780
H    -4.696914    -2.975597    -2.858677
O    -3.845566    -3.209303    -3.266585
H    -3.513619    -4.002261    -2.800946
H     0.356545     1.390827     4.636732
O     0.862312     2.149848     4.301086
H     0.912825     2.810620     5.006295
H    -4.653827    -5.164097    -1.527906
O    -5.354175    -4.809744    -0.952888
H    -5.138957    -5.162961    -0.068839
H     2.321533    -6.481141    -4.011104
O     1.986567    -6.151157    -3.157225
H     2.422563    -6.724053    -2.494225
H     0.462556    -3.377836    -3.977198
O     1.264358    -3.011739    -4.402742
H     0.942954    -2.641235    -5.250992
H     1.977068    -1.742009     3.004078
O     2.131013    -2.673525     2.788525
H     1.443886    -2.887788     2.122998
H    -3.017067    -1.805656    -3.175339
O    -2.594582    -0.919213    -3.112373
H    -3.250626    -0.273817    -3.431513
H    -3.180749     4.985408     1.105085
O    -3.963780     5.357914     0.652147
H    -4.376729     5.917231     1.358766
H     0.888879     2.264385     2.610380
O     0.986946     2.257581     1.638973
H     1.713898     1.634619     1.473934
H     0.195710     5.663144    -0.741913
O     0.716186     6.324051    -1.253123
H     0.859801     7.124744    -0.698930
H     0.356379     7.047103     2.604814
O    -0.007495     6.665226     1.788769
H     0.655984     5.994383     1.526933
H    -2.466264     0.228164     3.371109
O    -2.687680    -0.584643     3.878582
H    -1.924719    -0.624156     4.497216
H    -0.872408     0.570522     6.050810
O    -0.602547     0.047170     5.277885
H     0.113891    -0.554118     5.562375
H     0.719310    -4.984437     2.010363
O     0.179114    -5.092771     2.816455
H     0.324307    -6.013135     3.089226
H    -2.113417    -8.080012     0.489437
O    -1.789230    -7.591012     1.273297
H    -2.574511    -7.278874     1.730464
H    -0.377892     6.867937    -2.309453
O    -1.125601     7.287034    -2.807490
H    -1.914086     7.161919    -2.241479
H    -1.105130     4.318220     0.595221
O    -0.734476     4.377360    -0.301970
H    -1.442919     4.135121    -0.932135
H    -4.394267     2.761025     3.538142
O    -4.390173     2.931907     4.502654
H    -4.473400     2.049638     4.912689
H     2.039365    -3.570040     4.269072
O     1.977184    -4.040396     5.123516
H     2.487593    -3.503532     5.751342
H     4.695052    -3.187814     0.856768
O     4.532083    -3.113652    -0.109373
H     3.673166    -2.636139    -0.191409
H    -2.720354    -0.742268    -1.319438
O    -3.045737    -0.471405    -0.444488
H    -3.846327     0.054782    -0.650300
H    -1.622397    -0.759616    -4.601692
O    -1.117251    -0.545204    -5.407118
H    -0.406750     0.051780    -5.124572
H     1.792038    -1.713036    -3.354496
O     1.885935    -0.965545    -2.732438
H     1.108453    -0.388301    -2.862472
H     3.674340    -3.112810     2.570721
O     4.633145    -3.341995     2.495730
H     4.688122    -4.301999     2.623468
H     3.438185    -6.111052     3.148072
O     3.791560    -5.911612     2.246747
H     3.052825    -5.566570     1.705109
H    -3.347916     1.613281    -4.147193
O    -4.192406     1.142961    -3.953674
H    -4.407548     1.290255    -2.996759
H    -5.075512     4.156271     0.098199
O    -5.514618     3.290092    -0.002817
H    -6.445631     3.409327    -0.282581
H     6.736160    -1.179226    -1.353236
O     5.965349    -1.028744    -0.799632
H     5.546672    -1.896109    -0.600000
H     4.592588    -3.167006    -2.452756
O     3.723634    -2.996191    -2.866666
H     3.725037    -3.615900    -3.622069
H     4.453786    -2.280175     5.638630
O     4.112259    -2.744738     6.433105
H     4.447694    -3.649687     6.351934
H    -0.734607     6.353237     5.091709
O    -1.330535     6.928873     5.630069
H    -1.344520     7.805946     5.188842
H     4.700594    -0.133140    -1.453258
O     3.932600     0.408991    -1.714806
H     3.239231    -0.191839    -2.042471
H    -0.745827     4.525263    -4.017183
O    -1.528980     5.068039    -4.224106
H    -1.376408     5.935327    -3.803128
H     0.659401     3.206952    -2.639616
O     0.664477     3.582220    -3.548720
H     0.710142     2.817904    -4.133211
H    -5.374853    -5.182316     1.839380
O    -4.679126    -5.777930     1.483813
H    -3.837856    -5.361629     1.751449
H     7.876275    -1.691930    -4.026620
O     7.620760    -1.377369    -3.126762
H     7.133836    -0.533516    -3.283269
H     3.691891    -5.074254    -5.267642
O     4.455715    -4.700432    -4.789066
H     4.841379    -5.410821    -4.243304
H    -3.765828     0.034014     4.968328
O    -4.363531     0.497975     5.604495
H    -5.025224    -0.158683     5.895883
H     3.466932    -5.937490    -0.495340
O     4.338993    -5.691041    -0.815471
H     4.415878    -4.728493    -0.673544
H     4.995406    -0.336637    -4.148100
O     4.458924    -1.048484    -4.535526
H     4.134516    -1.630621    -3.815971
H    -1.176430     1.573771    -3.911458
O    -1.827799     2.193874    -4.296321
H    -1.472305     2.524318    -5.143989
H     4.882826    -6.320240    -2.293777
O     5.213202    -6.646672    -3.159798
H     6.031649    -7.127417    -2.974601
H     8.736857    -5.092298    -2.908547
O     8.046878    -5.509008    -2.347783
H     8.080980    -6.466486    -2.448583
H     2.346131     4.726670     0.463291
O     1.769081     4.709752     1.236133
H     1.411250     3.789953     1.315770
H    -4.400180    -2.619575     4.270457
O    -5.294587    -2.279411     4.071219
H    -5.159168    -1.499998     3.492761
H    -5.838489    -3.184908     1.361123
O    -6.299455    -3.740806     2.031845
H    -6.109099    -3.303866     2.881039
H     1.710368     3.486815     6.877499
O     1.085312     3.999112     6.343471
H     0.304560     4.157584     6.917354
H     5.014635    -2.158696     3.631379
O     5.036625    -1.439740     4.294730
H     4.224878    -0.883149     4.138785
H     2.406031    -5.563379     4.865257
O     2.785253    -6.447680     4.605939
H     2.039812    -7.029337     4.434044
H     2.243678    -4.520146    -6.764932
O     2.076496    -5.007155    -5.948074
H     1.813708    -4.314833    -5.293074
H     6.442500    -4.099383    -0.489253
O     7.196677    -4.501988    -0.027164
H     7.702177    -4.925854    -0.748570
H    -1.698775     4.510279     7.725831
O    -0.796106     4.603791     8.104278
H    -0.616703     5.563385     8.134795
H    -5.126113     5.694071    -5.567189
O    -4.518770     4.930355    -5.587962
H    -3.762924     5.143790    -6.156190
H     3.264208    -2.534349    -8.417091
O     3.178455    -3.065640    -7.614655
H     4.056212    -3.040952    -7.188151
H    -0.658192     8.830975    -2.265426
O    -0.533644     9.660276    -1.748380
H     0.229882     9.486623    -1.173058
H     2.084638    -0.898466     5.231181
O     1.512793    -1.422012     5.821904
H     1.612337    -1.076280     6.718119
H     5.195625    -2.027677    -5.678926
O     5.540220    -2.794867    -6.200639
H     5.267560    -3.583932    -5.681148
H     5.710744    -5.202763     4.704078
O     5.190433    -5.116449     5.531917
H     4.468843    -5.748694     5.449007
H    -3.953170     1.161459     7.039558
O    -3.760395     1.627842     7.888724
H    -4.633353     2.028963     8.143612
H    -1.845683     9.621579    -0.731079
O    -2.704968     9.495778    -0.254494
H    -3.316998     10.124079    -0.641277
H    -5.949630     4.694286    -2.906033
O    -6.859257     4.574646    -3.247529
H    -6.770701     3.871287    -3.923816
H     0.094642    -7.059359    -1.108297
O     0.560651    -7.494111    -0.361000
H    -0.116972    -7.687932     0.289766
H    -7.636562     3.797929    -1.935183
O    -7.896105     3.212056    -1.193568
H    -7.754177     2.302898    -1.532244
H     3.996788    -0.876556     7.001860
O     4.004638     0.087601     6.992168
H     4.815450     0.377637     6.557708
H     2.261753     5.800929    -1.169704
O     3.197512     5.508020    -1.057475
H     3.371927     4.966796    -1.850379
H     6.555588    -5.923975     0.688772
O     6.188196    -6.659390     1.224624
H     5.284282    -6.381782     1.453171
H    -3.850658     4.758710     7.797043
O    -3.274457     4.284190     7.151601
H    -3.476708     3.343981     7.260852
H     5.765551    -7.940526     0.159913
O     5.475817    -8.628693    -0.475613
H     4.645784    -8.303546    -0.868328
H    -0.533588     2.063923     7.714924
O    -1.169390     1.992837     6.983356
H    -2.038385     1.857663     7.380839
H    -6.375697    -0.110087     1.103751
O    -6.697750    -0.195820     0.191808
H    -7.616741    -0.465605     0.212128
H    -5.369502    -3.055842    -0.545146
O    -5.115821    -2.353012     0.079364
H    -5.685837    -1.580091    -0.108316
H     4.324665     5.584247     0.325092
O     4.660851     5.685922     1.229332
H     3.967853     6.197492     1.682540
H    -9.045553    -1.738131    -2.202622
O    -8.495628    -1.535688    -1.418230
H    -8.621505    -2.271352    -0.779220
H    -5.533211     3.471556    -5.494059
O    -6.049538     2.761515    -5.076960
H    -5.381983     2.176667    -4.664005
H     3.170212    -0.891226    -5.637465
O     2.313025    -1.011857    -6.100792
H     2.397195    -1.861605    -6.573133
H     8.103043    -1.354789    -6.023507
O     8.112233    -2.218045    -5.565655
H     7.255307    -2.618201    -5.813378
H     7.609168     0.985330    -6.306789
O     7.418957     0.136374    -6.718114
H     6.437509     0.086629    -6.751742
H    -7.854546    -3.681594     0.980670
O    -8.534848    -3.575560     0.298109
H    -8.438360    -4.335774    -0.302900
H    -2.397218     8.747238     1.310123
O    -2.244887     8.159404     2.063340
H    -1.475023     7.606318     1.839767
H    -4.428628     6.450270     3.523242
O    -4.600873     6.874017     2.665944
H    -3.838194     7.460311     2.523831
H     3.397084     3.446919    -3.567058
O     3.244247     4.416329    -3.474824
H     2.279108     4.481127    -3.579976
H    -6.120537    -1.601680    -3.399023
O    -6.201546    -2.179625    -2.613829
H    -6.984159    -1.871304    -2.103773
H     6.484926     1.062507     4.745910
O     6.092506     1.602160     5.449072
H     6.279921     2.520501     5.156196
H     1.351337     1.719733    -5.804227
O     1.158569     1.125118    -5.048509
H     1.521244     0.261566    -5.317845
H    -2.432138     3.137012     10.210202
O    -2.345911     2.156329     10.169912
H    -2.917374     1.895274     9.427432
H     7.639976    -0.488178     3.089034
O     6.890347     0.087686     3.258945
H     6.199128    -0.511861     3.641178
H    -5.658889    -8.046211    -0.648616
O    -4.922376    -8.114054    -0.003971
H    -4.924540    -7.295862     0.516534
H    -5.185437    -0.117112    -4.676748
O    -5.803322    -0.829177    -4.913620
H    -6.641847    -0.387581    -5.110351
H     1.874556    -0.203827    -7.494951
O     1.670851     0.266638    -8.339105
H     2.245702    -0.139849    -8.993039
H     4.851768    -1.402551    -9.289866
O     3.925902    -1.173996    -9.570023
H     3.903282    -1.293238    -10.518838
H     7.578474    -2.559441     4.209066
O     7.722733    -2.597184     3.249279
H     7.228490    -3.388350     2.979998
H     6.730398    -5.885732     2.701533
O     6.793898    -5.209587     3.401623
H     7.671037    -5.293950     3.817058
H    -1.805636     8.961595     3.512537
O    -1.554656     9.267904     4.409255
H    -2.401783     9.400622     4.868065
H    -7.399094     1.569209    -5.209019
O    -7.973405     0.825616    -4.961079
H    -8.874858     1.225627    -4.883512
H     6.908081    -1.091578    -8.396051
O     6.325276    -1.812940    -8.656970
H     6.099522    -2.261384    -7.823679
H    -1.689038     6.238091    -7.003359
O    -2.086183     5.413261    -6.727406
H    -1.835336     5.284113    -5.764153
H    -0.026067     3.374759     8.956788
O     0.242627     2.485049     9.267637
H    -0.549008     2.194040     9.758405
H     6.752585    -2.779088    -2.693388
O     6.222910    -3.522697    -2.349696
H     6.690666    -4.333977    -2.596128
H    -4.087132    -3.072007    -4.902985
O    -4.243771    -2.960988    -5.867557
H    -4.791077    -2.167960    -5.923683
H     2.010757     2.204528     8.483024
O     2.669398     2.314693     7.788381
H     3.092960     1.444949     7.673748
H    -6.908708    -5.193868    -1.344075
O    -7.825002    -5.463548    -1.586650
H    -7.960827    -5.062477    -2.469982
H    -3.806187     5.275510     5.725090
O    -3.774683     6.040307     5.129906
H    -2.841231     6.337042     5.222881
H    -7.885902     0.095106    -1.920960
O    -7.396805     0.817764    -2.336873
H    -7.627671     0.805441    -3.289516
H     5.843003     0.136272     0.421356
O     5.622655     0.858765     1.041647
H     6.135193     0.665156     1.853473
H    -6.186919     3.333082     7.434533
O    -6.056487     2.812363     8.261622
H    -6.661112     2.054573     8.175043
H     2.277640    -8.068464    -0.810164
O     2.952859    -8.057148    -1.508128
H     2.726236    -8.772176    -2.119506
H    -2.757932    -3.963212    -6.158362
O    -2.003922    -4.529366    -5.927558
H    -1.725098    -4.236276    -5.031694
H    -5.624438     3.780778     5.343111
O    -6.271673     4.175464     5.963051
H    -6.106791     5.119442     5.952232
H    -1.024705    -7.111625    -3.123546
O    -0.550697    -6.441182    -2.597579
H     0.355778    -6.372634    -2.981092
H     4.463161     2.031557     5.138914
O     3.521005     2.270042     5.020829
H     3.139302     2.289616     5.903664
H     4.131730     4.674437     6.308101
O     4.212421     5.402615     5.687739
H     3.641750     5.161696     4.919258
H     2.780959     3.630766     3.934424
O     2.603177     4.570607     3.767698
H     2.480800     4.667997     2.801507
H     9.395176     0.213654    -1.071014
O     8.590394     0.377568    -0.575787
H     8.415645    -0.440323    -0.080749
H    -2.037363     5.443730     10.727240
O    -2.748068     4.765512     10.788184
H    -2.798513     4.485470     11.718794
H     7.977219    -3.004120     0.336767
O     8.399320    -2.157180     0.589328
H     8.336043    -2.150513     1.551790
H     5.385593     3.676971     3.530088
O     6.043512     3.942507     4.194578
H     5.632672     4.661906     4.696028
H    -4.234740     5.103672     9.747590
O    -4.868261     5.195568     9.012390
H    -5.393826     4.379522     9.016907
H    -7.016899    -3.473552    -3.435932
O    -7.638733    -4.086176    -3.881421
H    -7.119731    -4.529517    -4.584350
H     0.062841     6.152523     10.790592
O    -0.796639     6.493452     10.539921
H    -0.678770     6.921090     9.673482
H     2.583115     1.495673    -4.089409
O     3.462354     1.848362    -3.853868
H     3.784436     1.334867    -3.083105
H    -6.950884    -0.197219     7.261604
O    -7.457835     0.581183     7.544952
H    -8.081571     0.767555     6.842078
H    -2.743900    -9.866019    -0.780552
O    -2.680814    -8.924628    -0.941910
H    -3.586024    -8.557495    -0.699743
H    -10.076379     3.079439    -4.851453
O    -10.193004     2.162519    -4.568736
H    -10.406135     2.248453    -3.618564
H    -2.051921    -3.007751     4.649997
O    -2.927091    -3.446951     4.723696
H    -2.923556    -4.065896     3.968099
H    -0.170025    -7.970322     2.524790
O     0.657478    -7.759342     2.970375
H     1.374235    -8.056472     2.382270
H     6.726559    -2.359041     6.404045
O     7.174238    -3.070088     5.940781
H     6.543829    -3.804668     5.905427
H    -5.249967    -1.982788     6.985654
O    -5.927496    -1.484473     6.503906
H    -5.914192    -1.861771     5.594543
H     0.822538     3.028349    -7.096648
O     1.739865     2.697031    -7.154714
H     1.724034     1.948459    -7.779225
H    -3.929937     8.778308     6.694012
O    -3.929523     8.774233     5.736560
H    -4.057238     7.846294     5.471835
H    -2.059416     10.318462    -2.724016
O    -2.961778     10.499541    -3.024023
H    -2.891785     11.132487    -3.737983
H     9.424261    -4.050209     4.051505
O     9.145691    -4.726997     4.676067
H     8.718664    -4.252982     5.400582
H    -0.748152    -5.998995    -5.803007
O    -0.044036    -6.565150    -5.470248
H     0.791071    -6.104440    -5.691188
H     1.834199     8.284134     0.670686
O     1.528659     8.604252    -0.206739
H     2.341909     8.641283    -0.739434
H     3.485780     2.925129    -6.651468
O     4.314414     2.635215    -6.244062
H     4.071653     2.363370    -5.333964
H     3.736582     7.129707    -1.226997
O     3.942180     8.064900    -1.442828
H     4.308837     8.007029    -2.337076
H     4.378040    -0.014541    -7.898364
O     4.757582     0.133054    -7.030239
H     4.576911     1.065507    -6.787807
H     6.034211     1.938122    -0.469780
O     6.597459     2.129521    -1.233513
H     7.422449     1.650047    -1.040921
H     6.681270    -8.428824    -1.584931
O     7.315209    -8.219646    -2.323614
H     7.681150    -9.054448    -2.610853
H    -5.313651    -5.787428    -5.357963
O    -5.931506    -5.115743    -5.672053
H    -5.380754    -4.348179    -5.911839
H     0.711316     7.196812     7.610188
O    -0.188703     7.221214     7.972780
H    -0.748963     7.236234     7.159295
H    -8.905335    -2.829039    -4.048050
O    -9.424959    -2.020045    -3.880356
H    -9.140599    -1.356359    -4.512522
H    -2.413501    -5.982791    -2.101473
O    -3.292418    -5.696788    -2.367896
H    -3.482182    -6.072746    -3.252597
H    -2.999092    -5.899758    -5.365836
O    -3.597791    -6.508465    -4.890684
H    -3.115741    -7.328689    -4.724184
H    -1.403810     3.723748    -6.960120
O    -0.863138     2.968159    -6.689509
H    -1.102000     2.182216    -7.237388
H    -0.222000     0.411731    -8.190862
O    -1.117179     0.647754    -7.905389
H    -1.290318     0.125667    -7.106039
H    -10.424804     4.060964    -2.687711
O    -10.490840     3.283222    -2.118138
H    -9.660076     3.257580    -1.611504
H     4.590193     4.090216     1.726465
O     4.382662     3.169565     2.006929
H     5.097766     2.593299     1.724506
H     6.478954     1.396591    -4.214313
O     6.177634     0.773751    -3.518401
H     6.210959     1.270776    -2.675600
H     9.633901    -2.223264    -0.926434
O     9.908081    -2.010602    -1.827370
H     9.106634    -1.672319    -2.269170
H     9.963992    -3.322051    -3.094604
O     9.694834    -3.975189    -3.767642
H     9.299393    -3.468706    -4.487746
H    -7.701847    -8.566167    -1.605521
O    -6.964125    -7.972209    -1.736265
H    -7.341527    -7.059076    -1.727246
H     4.156442     6.081267    -3.817512
O     4.818004     6.782442    -3.735763
H     5.654458     6.328562    -3.599610
H     0.085066    -8.171216    -5.176290
O     0.108871    -9.153886    -5.042639
H     0.256910    -9.519350    -5.914913
H    -2.338793    -8.669079    -2.669198
O    -2.107528    -8.406872    -3.579831
H    -1.462096    -9.026100    -3.939440
H     2.174579    -10.815117    -3.457407
O     2.128708    -9.860535    -3.434390
H     1.342112    -9.590366    -3.959152
H     6.828611     3.328459    -4.573751
O     6.884619     2.648904    -5.273478
H     6.089753     2.781399    -5.812294
H    -3.540916    -3.700794     7.760885
O    -3.653470    -2.911848     7.232120
H    -3.406940    -3.152121     6.312500
H    -0.653160    -3.365181    -6.691641
O    -0.022577    -2.634093    -6.702012
H    -0.503048    -1.857743    -6.360569
H     0.671454     0.487903     8.773622
O     0.675717    -0.231638     8.138490
H    -0.246785    -0.518879     8.050933
H    -5.839153     7.371885    -4.223111
O    -6.343790     6.752124    -4.781641
H    -6.629424     6.022476    -4.188278
H    -4.280733     9.108209    -3.242166
O    -4.816148     8.312234    -3.133182
H    -4.405993     7.834132    -2.394318
H    -9.718281     5.801520    -4.604142
O    -10.251393     4.997214    -4.437885
H    -11.132838     5.197937    -4.754461
H     2.793002     6.534703     6.145815
O     1.833213     6.631855     6.244817
H     1.488168     5.719011     6.145791
H     4.810691     8.554600     0.081250
O     5.130807     8.557008     1.001216
H     5.537718     7.692801     1.132661
H     4.132773    -7.426624    -4.315806
O     3.373015    -7.712163    -4.855364
H     3.093697    -8.552417    -4.476957
H     0.395079     8.676115     4.243250
O     1.071858     8.030868     4.013897
H     1.301026     7.539880     4.828969
H     5.232164     4.192738    -3.154050
O     6.193751     4.162284    -3.104051
H     6.404546     3.582323    -2.355609
H    -2.550807    -1.522977     7.607071
O    -2.043564    -0.730105     7.836306
H    -2.678380    -0.099782     8.188260
H    -9.032594     7.942212    -4.110250
O    -8.971650     7.356023    -4.865979
H    -8.014964     7.191682    -5.003584
H     3.534295    -8.970901     1.121665
O     2.858561    -8.338578     1.371685
H     3.334253    -7.532817     1.648521
H     3.595754     8.183062     1.830914
O     2.805701     7.619598     1.946223
H     2.361298     7.857183     2.772888
N    -2.924766     2.881620     12.889382
H    -3.819981     2.740085     13.211535
H    -2.853867     2.312023     12.102514
