24

H    -1.666459     4.403259     7.775375
O    -0.826998     4.535413     8.279412
H    -0.577599     5.482325     8.210512
H    -3.882626     4.519537     7.877489
O    -3.275043     4.144106     7.197201
H    -3.479384     3.192342     7.223284
H    -1.787373     4.668115     9.883947
O    -2.412567     4.581460     10.631442
H    -2.648153     5.500543     10.869030
H    -4.083947     4.509775     9.868820
O    -4.821821     4.823846     9.299347
H    -5.445295     4.081524     9.227592
H    -2.096158     9.632426     8.870967
O    -2.281599     8.703998     8.700590
H    -1.405681     8.299151     8.521261
H    -3.347656     8.619515     6.882973
O    -3.763345     8.695537     6.011339
H    -3.933103     7.777990     5.735859
H     0.738796     7.149641     7.635113
O    -0.188953     7.125150     7.931772
H    -0.666586     7.044885     7.054197
N    -3.524572     7.119566     10.752410
H    -3.106949     7.716487     10.104435
H    -4.311930     6.789764     10.298809
