45

H    -0.148727    -1.266382     3.068677
O     0.334543    -0.573018     2.589113
H    -0.126883     0.250858     2.830414
H    -0.350631    -3.568089     3.688670
O    -0.729175    -2.766500     4.087327
H    -0.482760    -2.828020     5.039437
H     1.947445    -1.787547     2.964392
O     2.039109    -2.744941     2.830368
H     1.429899    -2.929473     2.085094
H    -2.521153     0.278492     3.309901
O    -2.782846    -0.544036     3.785632
H    -2.028575    -0.607738     4.409037
H    -0.952705     0.624467     6.010571
O    -0.672249     0.078993     5.249085
H     0.116285    -0.433075     5.558813
H     0.618464    -5.109591     1.906612
O     0.103736    -5.172066     2.737453
H     0.199542    -6.108440     2.990984
H     1.870882    -3.613082     4.434543
O     1.977338    -4.095872     5.281422
H     2.661324    -3.566523     5.753010
H     4.494018    -2.356035     5.629884
O     4.176453    -2.862731     6.417641
H     4.542599    -3.756631     6.269431
H     2.288796    -5.708238     4.868280
O     2.679607    -6.575555     4.597490
H     1.953371    -7.156568     4.349037
H     2.061806    -0.704988     5.256525
O     1.532564    -1.144289     5.950026
H     1.675088    -0.646371     6.769767
H    -2.339530    -3.163709     4.397899
O    -3.200435    -3.610852     4.595577
H    -3.242857    -4.265123     3.875698
H    -3.673347    -3.554067     7.783517
O    -3.757285    -2.869277     7.119061
H    -3.562244    -3.301521     6.252806
H     0.534355     0.515853     8.965329
O     0.481888    -0.272859     8.412576
H    -0.478668    -0.404564     8.284822
H    -2.716547    -1.447957     7.551429
O    -2.234974    -0.649910     7.850159
H    -2.907703    -0.072834     8.230354
N    -0.287759    -3.375242     6.708192
H     0.575784    -3.711459     6.390496
H    -0.038903    -2.599085     7.221842
