603

H     0.187260     3.048883    -0.672457
O     0.709713     2.382979    -1.169348
H     1.649083     2.512366    -0.898357
H    -0.071151    -1.303352     3.142353
O     0.318531    -0.600620     2.599551
H    -0.159859     0.211299     2.836902
H    -2.410603     2.424066    -0.524077
O    -2.196567     1.950704     0.297458
H    -2.212509     1.003660     0.068926
H    -4.663687     0.547496     2.194032
O    -4.979205    -0.386452     2.204911
H    -4.476124    -0.860797     1.534836
H     0.060641    -0.296845     0.946354
O    -0.139679    -0.057354     0.020843
H     0.197300     0.840458    -0.097538
H    -0.144198    -3.576039     3.761549
O    -0.422880    -2.747812     4.185821
H     0.225085    -2.578840     4.886286
H    -4.892823     2.533748     1.350098
O    -4.250788     2.122919     1.961366
H    -3.409734     2.108300     1.445712
H    -3.268118     3.916397    -2.191927
O    -2.528881     3.319754    -1.965340
H    -2.172807     3.035474    -2.827262
H    -0.125128    -3.791778     0.485838
O     0.215207    -2.975456     0.905703
H    -0.571887    -2.491100     1.221521
H    -2.374885    -1.535891     2.467080
O    -2.187593    -1.998670     1.624020
H    -2.449234    -1.409494     0.897280
H     2.064051    -1.421574    -1.137125
O     2.299496    -1.677683    -0.221465
H     1.511961    -2.107411     0.163544
H    -1.394797     1.830488     1.918385
O    -1.482781     1.429500     2.793307
H    -1.467469     2.139437     3.460813
H     0.200305    -2.682379    -1.584635
O    -0.556354    -2.071712    -1.634478
H    -0.376008    -1.347165    -0.998810
H    -3.441083    -2.914045    -0.395509
O    -2.724053    -3.403686    -0.819519
H    -2.015863    -2.771027    -1.038412
H     2.774043     0.136748     2.921221
O     2.876914    -0.049198     3.881860
H     2.967842     0.842359     4.289555
H    -3.547351     6.392157    -0.513399
O    -3.311957     7.057736    -1.211745
H    -3.170017     7.901265    -0.738722
H     3.897334     0.599821     1.171374
O     2.947539     0.416049     1.289810
H     2.709424    -0.334378     0.708214
H    -5.794798     0.855375    -1.588168
O    -4.884434     1.183386    -1.463189
H    -4.995051     2.009872    -0.948457
H    -1.219968     5.402355     2.229168
O    -1.844054     4.654619     2.111750
H    -1.918695     4.232750     2.972972
H     3.483422     2.781058     0.420074
O     3.233126     2.741523    -0.518585
H     3.565242     1.900490    -0.873107
H     1.483282    -4.671755    -2.277087
O     1.549004    -3.896872    -1.700875
H     2.341154    -3.432788    -2.053202
H    -0.937183    -0.062119    -2.550332
O    -0.304333     0.591989    -2.873674
H    -0.043011     1.172366    -2.135604
H     1.697963    -4.667759    -0.206074
O     1.808614    -5.307563     0.533682
H     1.344907    -6.118074     0.236267
H    -1.238478    -3.241875    -2.892556
O    -1.065833    -3.922866    -3.555943
H    -0.937121    -4.771189    -3.090324
H    -2.778021     3.302640     4.720706
O    -1.796859     3.301597     4.683695
H    -1.500913     2.897078     5.517503
H     0.960113     5.035984     4.086760
O     0.013909     5.266666     4.142908
H    -0.456161     4.461833     4.399115
H    -1.732097    -4.636808    -0.387603
O    -0.965372    -5.177698    -0.106964
H    -1.310428    -5.866970     0.469899
H    -3.941525     5.851123    -2.569364
O    -4.292266     5.017725    -2.900863
H    -4.140475     4.986516    -3.869728
H    -2.426742    -3.684847     1.925670
O    -2.442625    -4.590461     2.298258
H    -1.502114    -4.827643     2.435027
H    -4.707892    -2.960917    -2.899354
O    -3.856434    -3.191067    -3.309017
H    -3.522913    -3.985932    -2.847807
H     0.344339     1.375524     4.614243
O     0.848567     2.137404     4.281834
H     0.898266     2.794017     4.990822
H    -4.660222    -5.156028    -1.579791
O    -5.360725    -4.805774    -1.002470
H    -5.144206    -5.163004    -0.120315
H     2.315043    -6.448448    -4.075762
O     1.981322    -6.123488    -3.219545
H     2.418139    -6.699529    -2.559972
H     0.451485    -3.348790    -4.024068
O     1.252672    -2.979334    -4.447698
H     0.930226    -2.605656    -5.294468
H     1.968361    -1.746293     2.964672
O     2.124445    -2.676123     2.743383
H     1.436563    -2.888293     2.077918
H    -3.030248    -1.786614    -3.211309
O    -2.609312    -0.899751    -3.143737
H    -3.266453    -0.253943    -3.459698
H    -3.201722     4.982123     1.103451
O    -3.985379     5.356178     0.652888
H    -4.399128     5.910783     1.362393
H     0.873389     2.260212     2.591967
O     0.971289     2.259335     1.620438
H     1.698526     1.637759     1.451571
H     0.172172     5.674795    -0.742911
O     0.691500     6.339270    -1.250762
H     0.833793     7.137322    -0.692607
H     0.333827     7.042008     2.610860
O    -0.030433     6.664008     1.793294
H     0.633617     5.995303     1.527194
H    -2.477440     0.214528     3.345044
O    -2.696355    -0.601701     3.847708
H    -1.933756    -0.642294     4.466793
H    -0.883212     0.545549     6.025546
O    -0.610904     0.029355     5.248328
H     0.104302    -0.574182     5.530498
H     0.715566    -4.985636     1.955007
O     0.176346    -5.098915     2.760977
H     0.322969    -6.020364     3.029135
H    -2.113494    -8.077916     0.420692
O    -1.789184    -7.592609     1.206775
H    -2.574456    -7.283825     1.666264
H    -0.404353     6.886785    -2.303716
O    -1.152967     7.307829    -2.798634
H    -1.940973     7.177876    -2.233066
H    -1.125576     4.320912     0.588464
O    -0.755592     4.385905    -0.308553
H    -1.463849     4.145108    -0.939634
H    -4.409822     2.743301     3.526543
O    -4.405447     2.910128     4.491769
H    -4.486220     2.025440     4.897825
H     2.034949    -3.580203     4.219915
O     1.975078    -4.055953     5.071477
H     2.482834    -3.520564     5.702634
H     4.686991    -3.176711     0.807584
O     4.523724    -3.097556    -0.158229
H     3.663625    -2.621350    -0.237120
H    -2.733864    -0.732117    -1.350478
O    -3.058655    -0.465973    -0.473821
H    -3.860583     0.059448    -0.676193
H    -1.638183    -0.731098    -4.633248
O    -1.134348    -0.511540    -5.437963
H    -0.424331     0.084938    -5.153406
H     1.777986    -1.685135    -3.394359
O     1.872182    -0.940745    -2.768377
H     1.093575    -0.364029    -2.894518
H     3.667839    -3.111684     2.522598
O     4.626965    -3.339288     2.445263
H     4.683160    -4.299791     2.568681
H     3.436968    -6.113543     3.084925
O     3.789534    -5.909040     2.184265
H     3.049750    -5.562366     1.645041
H    -3.367167     1.636704    -4.165921
O    -4.210896     1.164241    -3.974108
H    -4.425452     1.306113    -3.016287
H    -5.096055     4.155249     0.093365
O    -5.533778     3.288935    -0.011245
H    -6.465194     3.407770    -0.289908
H     6.723691    -1.153957    -1.392829
O     5.952749    -1.007282    -0.838607
H     5.535203    -1.876201    -0.642740
H     4.581824    -3.139367    -2.501903
O     3.712945    -2.967104    -2.915039
H     3.713682    -3.583046    -3.673315
H     4.448529    -2.293547     5.594088
O     4.109144    -2.762439     6.386748
H     4.444785    -3.666784     6.300535
H    -0.754247     6.333192     5.096116
O    -1.349893     6.906253     5.638312
H    -1.366139     7.784854     5.199975
H     4.685618    -0.110611    -1.486611
O     3.917089     0.431851    -1.745577
H     3.223847    -0.168205    -2.075260
H    -0.769951     4.552019    -4.023091
O    -1.554143     5.094740    -4.226115
H    -1.402279     5.960181    -3.801424
H     0.638415     3.229075    -2.653415
O     0.642807     3.609309    -3.560400
H     0.688593     2.848185    -4.149119
H    -5.378606    -5.192479     1.787934
O    -4.682280    -5.785163     1.428536
H    -3.841472    -5.368909     1.697705
H     7.863277    -1.649760    -4.069855
O     7.607548    -1.340411    -3.169140
H     7.118287    -0.496656    -3.320358
H     3.681433    -5.030484    -5.327006
O     4.448035    -4.659397    -4.849468
H     4.832901    -5.371797    -4.305836
H    -3.776303     0.010053     4.942347
O    -4.375365     0.470964     5.578870
H    -5.033864    -0.189005     5.870307
H     3.462796    -5.921363    -0.557714
O     4.334076    -5.671711    -0.877681
H     4.409219    -4.709839    -0.730382
H     4.979351    -0.299530    -4.182180
O     4.447000    -1.011867    -4.574340
H     4.120404    -1.596670    -3.857681
H    -1.195666     1.599393    -3.932318
O    -1.848171     2.220920    -4.312786
H    -1.494421     2.555580    -5.159753
H     4.877423    -6.292148    -2.359755
O     5.208948    -6.612358    -3.227733
H     6.026988    -7.094545    -3.044720
H     8.729511    -5.056335    -2.970314
O     8.040174    -5.476382    -2.411752
H     8.075422    -6.433482    -2.516279
H     2.324954     4.735914     0.456101
O     1.748688     4.714338     1.229402
H     1.392487     3.793383     1.304824
H    -4.406219    -2.640769     4.231598
O    -5.301330    -2.301724     4.033518
H    -5.167457    -1.518442     3.460179
H    -5.845760    -3.193486     1.320278
O    -6.305451    -3.753595     1.988251
H    -6.114828    -3.320834     2.839678
H     1.696064     3.461039     6.864742
O     1.070641     3.977572     6.334777
H     0.289362     4.127617     6.909516
H     5.007309    -2.160925     3.586907
O     5.029297    -1.444952     4.253406
H     4.216038    -0.889217     4.101641
H     2.405858    -5.576227     4.805478
O     2.786187    -6.458674     4.541041
H     2.041253    -7.040498     4.367480
H     2.230659    -4.475916    -6.818032
O     2.067915    -4.967410    -6.002104
H     1.802446    -4.277906    -5.345417
H     6.434670    -4.078705    -0.543568
O     7.190604    -4.481817    -0.084863
H     7.695747    -4.901543    -0.808766
H    -1.714191     4.474814     7.718184
O    -0.814175     4.572915     8.100938
H    -0.634585     5.532258     8.128056
H    -5.153282     5.721712    -5.563978
O    -4.544710     4.959190    -5.588439
H    -3.789717     5.176321    -6.156482
H     3.213124    -2.516247    -8.413626
O     3.135162    -3.017831    -7.583994
H     4.020432    -2.967954    -7.179725
H    -0.688228     8.849080    -2.249322
O    -0.564483     9.676024    -1.728111
H     0.199941     9.500622    -1.154556
H     2.076359    -0.913543     5.196706
O     1.506575    -1.442604     5.784190
H     1.602631    -1.100120     6.682261
H     5.180818    -1.982243    -5.721617
O     5.531137    -2.745370    -6.246598
H     5.254857    -3.538502    -5.734042
H     5.709073    -5.209606     4.643565
O     5.189790    -5.128413     5.472434
H     4.468684    -5.760916     5.387116
H    -3.961092     1.130741     7.019562
O    -3.766821     1.603851     7.864434
H    -4.642598     1.987333     8.129496
H    -1.875402     9.629905    -0.710178
O    -2.733952     9.500775    -0.233019
H    -3.347464     10.129365    -0.617034
H    -5.973147     4.706994    -2.906988
O    -6.882843     4.587751    -3.248405
H    -6.793587     3.887874    -3.928296
H     0.091800    -7.045599    -1.173669
O     0.559229    -7.483469    -0.428999
H    -0.117615    -7.681543     0.221330
H    -7.657807     3.802893    -1.939562
O    -7.915877     3.213055    -1.200579
H    -7.772744     2.305728    -1.543779
H     3.989245    -0.897308     6.965252
O     3.996612     0.066882     6.959669
H     4.806971     0.359474     6.526252
H     2.237793     5.818305    -1.171280
O     3.174239     5.526575    -1.061446
H     3.348616     4.989476    -1.857202
H     6.551728    -5.909004     0.624498
O     6.186020    -6.647916     1.156464
H     5.281935    -6.372834     1.387761
H    -3.857831     4.711495     7.805673
O    -3.292633     4.251795     7.143292
H    -3.484523     3.307737     7.250942
H     5.764905    -7.923894     0.085483
O     5.476622    -8.608778    -0.554279
H     4.644828    -8.283799    -0.943574
H    -0.543473     2.028858     7.697719
O    -1.179083     1.965934     6.964572
H    -2.046046     1.821764     7.363542
H    -6.387961    -0.118593     1.078755
O    -6.711012    -0.199589     0.166657
H    -7.629358    -0.471563     0.186655
H    -5.378572    -3.053957    -0.585855
O    -5.125314    -2.353752     0.041749
H    -5.696903    -1.580930    -0.141333
H     4.302017     5.597426     0.320579
O     4.639142     5.695337     1.224914
H     3.945504     6.202989     1.681487
H    -9.058019    -1.733998    -2.233668
O    -8.507933    -1.534471    -1.448663
H    -8.631917    -2.273627    -0.813280
H    -5.556787     3.497962    -5.501607
O    -6.071723     2.785362    -5.087174
H    -5.402816     2.199274    -4.678094
H     3.153274    -0.850955    -5.673283
O     2.296241    -0.969695    -6.135816
H     2.380095    -1.816802    -6.614424
H     8.086544    -1.301150    -6.063922
O     8.100324    -2.169027    -5.615255
H     7.241198    -2.568154    -5.857675
H     7.589248     1.035472    -6.339490
O     7.397572     0.188921    -6.755276
H     6.415343     0.142925    -6.787475
H    -7.861359    -3.691348     0.938866
O    -8.542348    -3.583093     0.257280
H    -8.445007    -4.340175    -0.347507
H    -2.423932     8.744296     1.327039
O    -2.269576     8.153483     2.077592
H    -1.499529     7.602155     1.850079
H    -4.449761     6.432764     3.529778
O    -4.623580     6.861478     2.675367
H    -3.861477     7.448964     2.535072
H     3.374997     3.478178    -3.581590
O     3.220999     4.446893    -3.484038
H     2.255629     4.510663    -3.588416
H    -6.134144    -1.586654    -3.431693
O    -6.213681    -2.168667    -2.649341
H    -6.996327    -1.864167    -2.137102
H     6.473400     1.057002     4.716585
O     6.081222     1.592646     5.422900
H     6.266410     2.512699     5.134287
H     1.330174     1.759081    -5.826344
O     1.140660     1.160795    -5.072400
H     1.502676     0.298731    -5.347823
H    -2.467059     2.938857     10.498009
O    -2.254532     2.032477     10.220917
H    -2.854371     1.834541     9.489809
H     7.629470    -0.483879     3.051553
O     6.879239     0.090312     3.224354
H     6.188930    -0.512007     3.604363
H    -5.659777    -8.044170    -0.714362
O    -4.922614    -8.114143    -0.070689
H    -4.925710    -7.298602     0.454021
H    -5.202404    -0.094052    -4.702753
O    -5.819475    -0.805909    -4.942304
H    -6.658765    -0.364719    -5.136520
H     1.854126    -0.155446    -7.529469
O     1.650279     0.323360    -8.367863
H     2.216878    -0.083304    -9.029934
H     4.734214    -1.235931    -9.300695
O     3.815885    -1.166279    -9.635133
H     3.890812    -1.571113    -10.506427
H     7.572337    -2.560238     4.160600
O     7.716303    -2.593188     3.200548
H     7.222675    -3.383603     2.927880
H     6.728548    -5.880668     2.637081
O     6.791843    -5.207513     3.339969
H     7.669131    -5.292886     3.754806
H    -1.830246     8.948475     3.529662
O    -1.579971     9.250397     4.428254
H    -2.427436     9.380139     4.886982
H    -7.419298     1.591318    -5.224612
O    -7.992243     0.845602    -4.979905
H    -8.894271     1.243627    -4.899736
H     6.966011    -1.047780    -8.328567
O     6.367727    -1.753594    -8.612329
H     6.112366    -2.182499    -7.772943
H    -1.717935     6.278497    -6.999928
O    -2.114703     5.452381    -6.727336
H    -1.862144     5.318067    -5.765430
H     0.017581     3.295226     9.030210
O     0.216813     2.374914     9.281653
H    -0.579528     2.107933     9.789774
H     6.741628    -2.746624    -2.741639
O     6.213264    -3.492860    -2.402259
H     6.682082    -4.302385    -2.652214
H    -4.099578    -3.045895    -4.944669
O    -4.257300    -2.930474    -5.908499
H    -4.805549    -2.137857    -5.960535
H     1.996520     2.172659     8.461702
O     2.657888     2.288300     7.769774
H     3.080849     1.419025     7.650015
H    -6.914846    -5.190475    -1.394290
O    -7.830851    -5.460527    -1.637639
H    -7.967968    -5.055102    -2.518789
H    -3.824262     5.247166     5.723896
O    -3.794574     6.017690     5.135675
H    -2.860699     6.313028     5.227544
H    -7.901075     0.099768    -1.943518
O    -7.413759     0.825531    -2.356141
H    -7.645130     0.817413    -3.308705
H     5.829367     0.151574     0.388352
O     5.608972     0.871004     1.012090
H     6.121865     0.673746     1.822854
H    -6.203779     3.293418     7.424464
O    -6.072433     2.772521     8.250915
H    -6.671966     2.010685     8.162010
H     2.276617    -8.052364    -0.882520
O     2.951588    -8.036960    -1.580721
H     2.725023    -8.748957    -2.195680
H    -2.769682    -3.928786    -6.205912
O    -2.015462    -4.495651    -5.977669
H    -1.735765    -4.205624    -5.081164
H    -5.640082     3.751619     5.337104
O    -6.287441     4.145188     5.958042
H    -6.125343     5.089518     5.947056
H    -1.029246    -7.089445    -3.188108
O    -0.555480    -6.421281    -2.658985
H     0.350045    -6.348784    -3.043681
H     4.449908     2.020454     5.116811
O     3.507597     2.258899     5.000630
H     3.126191     2.271710     5.883833
H     4.115207     4.656749     6.299019
O     4.193426     5.388937     5.683017
H     3.623258     5.150424     4.913343
H     2.763893     3.623373     3.921781
O     2.584799     4.563831     3.759604
H     2.461570     4.665470     2.793945
H     9.380989     0.242316    -1.105653
O     8.575541     0.402025    -0.610265
H     8.402577    -0.418175    -0.118384
H    -2.081178     5.297919     10.672023
O    -2.801442     4.667534     10.903819
H    -3.017060     4.841653     11.820239
H     7.968683    -2.984721     0.286198
O     8.390161    -2.138530     0.542380
H     8.327153    -2.136541     1.504934
H     5.368535     3.675618     3.515329
O     6.026820     3.939643     4.180116
H     5.614777     4.655263     4.685874
H    -4.191894     4.999963     9.812370
O    -4.827702     5.152481     9.093083
H    -5.438487     4.402979     9.090142
H    -7.027539    -3.459733    -3.477338
O    -7.648756    -4.071081    -3.925447
H    -7.129503    -4.509972    -4.631027
H     0.046636     6.108711     10.787618
O    -0.819229     6.439898     10.544592
H    -0.707102     6.873346     9.679225
H     2.563589     1.528946    -4.114236
O     3.442899     1.881162    -3.876882
H     3.765203     1.364594    -3.108379
H    -6.957128    -0.235733     7.238677
O    -7.465828     0.541101     7.523427
H    -8.091546     0.726121     6.821999
H    -2.742201    -9.858538    -0.857711
O    -2.680621    -8.916291    -1.014539
H    -3.586220    -8.551702    -0.769748
H    -10.098816     3.095362    -4.857120
O    -10.213929     2.176860    -4.579002
H    -10.426303     2.257495    -3.628222
H    -2.057446    -3.026597     4.606909
O    -2.931443    -3.468217     4.678247
H    -2.927252    -4.083323     3.919733
H    -0.168875    -7.975316     2.455199
O     0.658869    -7.765585     2.900951
H     1.375368    -8.058495     2.310516
H     6.721714    -2.372845     6.357383
O     7.170313    -3.080644     5.889999
H     6.540972    -3.816024     5.851592
H    -5.255305    -2.017110     6.951066
O    -5.933995    -1.518358     6.471194
H    -5.920369    -1.892227     5.560653
H     0.799740     3.073301    -7.111944
O     1.717235     2.742983    -7.170455
H     1.702508     1.998008    -7.800059
H    -3.952906     8.745510     6.711822
O    -3.954216     8.746603     5.754452
H    -4.079182     7.819805     5.484010
H    -2.091800     10.336559    -2.699674
O    -2.994839     10.518187    -2.997285
H    -2.926631     11.154034    -3.708856
H     9.420190    -4.046984     3.994606
O     9.143703    -4.727748     4.615754
H     8.715824    -4.258577     5.342943
H    -0.756061    -5.963198    -5.862230
O    -0.050517    -6.529348    -5.532437
H     0.783479    -6.065842    -5.752628
H     1.807756     8.291381     0.681843
O     1.501002     8.615885    -0.193489
H     2.313642     8.656526    -0.726863
H     3.463183     2.969854    -6.670046
O     4.292216     2.679149    -6.263453
H     4.049201     2.404500    -5.354276
H     3.710294     7.149753    -1.223057
O     3.914475     8.086412    -1.434023
H     4.280209     8.033760    -2.328974
H     4.347460     0.050536    -7.931590
O     4.740729     0.185504    -7.067845
H     4.558047     1.114677    -6.812513
H     6.016796     1.958378    -0.494281
O     6.579303     2.154235    -1.257489
H     7.405193     1.675424    -1.067426
H     6.680050    -8.401233    -1.662537
O     7.313496    -8.187823    -2.400741
H     7.680076    -9.021068    -2.691636
H    -5.321984    -5.760976    -5.412490
O    -5.941319    -5.088725    -5.722426
H    -5.391998    -4.319106    -5.959007
H     0.690024     7.165402     7.618815
O    -0.210271     7.190608     7.981594
H    -0.768660     7.207244     7.166087
H    -8.917422    -2.815271    -4.084657
O    -9.438353    -2.008007    -3.912619
H    -9.155405    -1.340700    -4.541597
H    -2.419035    -5.968160    -2.159245
O    -3.298610    -5.682332    -2.423587
H    -3.488344    -6.053879    -3.310214
H    -3.007597    -5.869173    -5.422695
O    -3.604691    -6.481569    -4.950006
H    -3.120990    -7.301783    -4.788595
H    -1.429282     3.763639    -6.970173
O    -0.887159     3.008319    -6.702196
H    -1.123227     2.224330    -7.254690
H    -0.241668     0.462007    -8.219026
O    -1.136747     0.695376    -7.930007
H    -1.308556     0.167257    -7.134517
H    -10.447023     4.065302    -2.688396
O    -10.511578     3.284870    -2.122346
H    -9.680159     3.257678    -1.616854
H     4.571370     4.096787     1.714265
O     4.365611     3.174549     1.990591
H     5.081131     2.600640     1.704468
H     6.459466     1.437303    -4.241262
O     6.161146     0.809311    -3.548628
H     6.192897     1.302021    -2.703116
H     9.623337    -2.195175    -0.974063
O     9.896116    -1.978783    -1.874606
H     9.094049    -1.637863    -2.313123
H     9.953270    -3.282927    -3.147148
O     9.685733    -3.931818    -3.825111
H     9.288365    -3.420976    -4.540896
H    -7.702815    -8.562558    -1.672000
O    -6.966081    -7.966910    -1.800603
H    -7.344822    -7.054361    -1.786675
H     4.129751     6.115412    -3.819284
O     4.790389     6.817073    -3.734075
H     5.627661     6.363717    -3.601423
H     0.080868    -8.136349    -5.247547
O     0.106889    -9.119785    -5.118759
H     0.253751    -9.480479    -5.993216
H    -2.340290    -8.651378    -2.740679
O    -2.109902    -8.384240    -3.650098
H    -1.463802    -9.000623    -4.013321
H     2.175315    -10.785845    -3.543240
O     2.128981    -9.831382    -3.516276
H     1.341345    -9.559617    -4.038865
H     6.805920     3.369667    -4.592379
O     6.862248     2.693575    -5.295551
H     6.066496     2.828283    -5.832764
H    -3.542099    -3.736464     7.716890
O    -3.659212    -2.947001     7.189937
H    -3.410939    -3.182590     6.269905
H    -0.666183    -3.324329    -6.738615
O    -0.036303    -2.592774    -6.742349
H    -0.518453    -1.818331    -6.399397
H     0.662063     0.449331     8.747804
O     0.668341    -0.263558     8.105087
H    -0.253865    -0.553240     8.019649
H    -5.868295     7.391417    -4.210297
O    -6.372535     6.773895    -4.771577
H    -6.656150     6.040408    -4.181948
H    -4.311594     9.125385    -3.221960
O    -4.845979     8.328305    -3.116182
H    -4.434101     7.846712    -2.380572
H    -9.744921     5.816760    -4.596467
O    -10.276701     5.010905    -4.433544
H    -11.158536     5.211489    -4.749108
H     2.772065     6.515385     6.148174
O     1.812226     6.610270     6.249930
H     1.469427     5.696852     6.145590
H     4.783073     8.569777     0.091634
O     5.104119     8.568144     1.011317
H     5.512244     7.703788     1.138023
H     4.128176    -7.389954    -4.385203
O     3.369544    -7.674254    -4.926855
H     3.090402    -8.516294    -4.552315
H     0.370880     8.662745     4.257741
O     1.048922     8.020031     4.025212
H     1.278742     7.524677     4.837402
H     5.209238     4.225297    -3.166581
O     6.170959     4.195096    -3.118059
H     6.382941     3.612629    -2.371915
H    -2.558814    -1.556608     7.573077
O    -2.048749    -0.763459     7.794047
H    -2.674109    -0.139246     8.172382
H    -9.062284     7.956001    -4.092226
O    -9.001096     7.373911    -4.851088
H    -8.044252     7.211550    -4.990203
H     3.536486    -8.962903     1.044276
O     2.859787    -8.332850     1.297248
H     3.334016    -7.527716     1.578414
H     3.570429     8.187308     1.840085
O     2.781332     7.622082     1.953370
H     2.337451     7.854613     2.781666
N     5.462315    -3.022959    -11.076301
H     6.061460    -2.786840    -10.351434
H     6.037422    -3.255295    -11.809735
