21

H    -8.989437    -1.813307    -2.266039
O    -8.490712    -1.588783    -1.458833
H    -8.584422    -2.336434    -0.818250
H    -7.320383     1.666683    -5.234878
O    -7.912632     0.926376    -5.000022
H    -8.806595     1.335513    -4.904527
H    -7.837881     0.104312    -1.904691
O    -7.367287     0.837014    -2.328216
H    -7.581608     0.844640    -3.283562
H    -10.224793     3.010712    -4.949951
O    -10.262795     2.138800    -4.532799
H    -10.323171     2.395779    -3.577012
H    -8.775991    -2.822666    -4.228460
O    -9.236503    -1.962548    -4.116753
H    -8.743809    -1.345068    -4.673175
H    -10.305928     4.201779    -2.755897
O    -10.411406     3.443847    -2.159888
H    -9.552322     3.391850    -1.685684
N    -11.654758    -0.460261    -5.400214
H    -11.348504     0.410599    -5.112036
H    -11.083739    -1.083938    -4.933738
