39

H    -3.398475     6.439936    -0.496751
O    -3.226111     7.098938    -1.230147
H    -3.043692     7.950121    -0.779531
H    -3.721660     5.838029    -2.777742
O    -4.160251     5.029568    -3.066383
H    -3.931063     4.920668    -4.018217
H    -3.116867     5.003119     1.127306
O    -3.893365     5.375697     0.646366
H    -4.312115     5.931898     1.352400
H    -5.051218     4.142192     0.024200
O    -5.514448     3.292235    -0.061866
H    -6.437494     3.382409    -0.381451
H    -4.952362     5.618457    -5.788707
O    -4.381116     4.820489    -5.776704
H    -3.624779     4.983856    -6.365402
H    -5.905846     4.755605    -3.095668
O    -6.820455     4.617934    -3.427704
H    -6.691730     3.878138    -4.071366
H    -7.599538     3.738196    -2.105369
O    -7.871428     3.172006    -1.348219
H    -7.698510     2.261804    -1.696547
H    -10.610676     3.956070    -2.709234
O    -10.605932     3.136565    -2.186991
H    -9.725302     3.136249    -1.771179
H    -5.688773     7.347356    -4.560373
O    -6.185936     6.742840    -5.137860
H    -6.526729     6.058209    -4.516443
H    -4.274058     9.183219    -3.179176
O    -4.816378     8.381792    -3.087103
H    -4.341254     7.865712    -2.402123
H    -9.768948     5.797935    -4.457367
O    -10.326623     4.984914    -4.461013
H    -11.138590     5.245536    -4.902922
H    -8.568633     7.515238    -3.563387
O    -8.942351     7.335553    -4.446544
H    -8.146171     7.300949    -4.999294
N    -7.479732     7.932692    -2.053142
H    -7.337944     7.272530    -1.367799
H    -6.587768     8.228212    -2.309184
