36

H    -4.575357    -5.153265    -1.495353
O    -5.313217    -4.861788    -0.916172
H    -5.061721    -5.200381    -0.033106
H    -5.792755    -8.113468    -0.249479
O    -5.080913    -8.236502     0.409735
H    -4.988607    -7.374826     0.856242
H    -6.823911    -5.298163    -1.323102
O    -7.740687    -5.585596    -1.586637
H    -7.847674    -5.149202    -2.463411
H    -0.900770    -7.185720    -3.069937
O    -0.461542    -6.468177    -2.578564
H     0.442845    -6.373729    -2.973204
H    -6.969185    -3.464327    -3.423270
O    -7.570017    -4.108490    -3.869136
H    -7.050006    -4.441076    -4.633617
H    -2.681772    -9.798461    -0.520588
O    -2.792977    -8.875679    -0.763660
H    -3.697348    -8.636858    -0.416659
H    -5.349873    -5.727833    -5.637897
O    -5.957160    -5.024646    -5.910499
H    -5.351233    -4.270180    -6.073892
H    -2.398727    -5.839801    -2.196399
O    -3.318480    -5.705089    -2.461772
H    -3.406736    -6.012519    -3.393129
H    -2.937512    -5.852492    -5.514551
O    -3.518316    -6.497102    -5.054838
H    -2.943491    -7.271435    -4.882562
H    -7.603789    -8.668279    -1.653694
O    -6.870346    -8.051580    -1.728359
H    -7.294087    -7.136010    -1.738113
H    -2.824157    -8.781127    -3.340430
O    -2.050048    -8.394045    -3.795438
H    -1.525289    -9.101961    -4.188911
N    -4.780784    -9.034985    -3.427424
H    -5.044509    -8.729118    -4.300382
H    -5.459364    -8.655972    -2.835387
