603

H     0.205601     3.020086    -0.683428
O     0.731449     2.354840    -1.177520
H     1.669197     2.484810    -0.900588
H    -0.071085    -1.331801     3.131111
O     0.319848    -0.628513     2.589850
H    -0.160116     0.182970     2.825101
H    -2.392906     2.392508    -0.550678
O    -2.184103     1.919843     0.272550
H    -2.195450     0.972754     0.044406
H    -4.660527     0.514641     2.155250
O    -4.975734    -0.419594     2.163309
H    -4.465310    -0.893342     1.498411
H     0.072158    -0.325774     0.935123
O    -0.124693    -0.085623     0.008937
H     0.214718     0.811489    -0.107775
H    -0.146946    -3.604510     3.749417
O    -0.428732    -2.776361     4.172337
H     0.215373    -2.607371     4.876350
H    -4.886163     2.500437     1.308803
O    -4.247914     2.089723     1.924020
H    -3.403408     2.075986     1.413876
H    -3.242015     3.883647    -2.223954
O    -2.503905     3.287418    -1.992840
H    -2.141877     3.003642    -2.852379
H    -0.106856    -3.821680     0.475502
O     0.229875    -3.003423     0.895876
H    -0.559344    -2.520712     1.207889
H    -2.370643    -1.566391     2.442233
O    -2.180283    -2.029486     1.600085
H    -2.435076    -1.439226     0.871962
H     2.089501    -1.448845    -1.135323
O     2.319013    -1.703332    -0.217880
H     1.530265    -2.135427     0.162042
H    -1.390038     1.801146     1.898378
O    -1.484938     1.400277     2.772587
H    -1.472921     2.110143     3.440238
H     0.229129    -2.712214    -1.593479
O    -0.528004    -2.102157    -1.648036
H    -0.351648    -1.377511    -1.011322
H    -3.417905    -2.943645    -0.425279
O    -2.702187    -3.434724    -0.849448
H    -1.989479    -2.804312    -1.060795
H     2.773659     0.111797     2.926255
O     2.870248    -0.073515     3.887671
H     2.958466     0.818146     4.295525
H    -3.533795     6.359640    -0.547630
O    -3.295238     7.025138    -1.244970
H    -3.156647     7.868997    -0.771465
H     3.906777     0.575320     1.183430
O     2.956245     0.391228     1.295927
H     2.722614    -0.360149     0.713638
H    -5.769015     0.820770    -1.634450
O    -4.859709     1.149487    -1.504190
H    -4.973834     1.976112    -0.990328
H    -1.221713     5.373073     2.208845
O    -1.844566     4.624788     2.088041
H    -1.923390     4.202939     2.948918
H     3.495128     2.755935     0.428708
O     3.249769     2.715841    -0.511252
H     3.585570     1.875319    -0.863757
H     1.519305    -4.700484    -2.277005
O     1.579132    -3.923378    -1.703059
H     2.374187    -3.459981    -2.049808
H    -0.903977    -0.093033    -2.565985
O    -0.271792     0.562801    -2.886979
H    -0.013993     1.143146    -2.147522
H     1.720800    -4.695037    -0.204948
O     1.828013    -5.333622     0.535809
H     1.366879    -6.145357     0.236260
H    -1.198668    -3.273666    -2.908699
O    -1.025403    -3.953788    -3.572817
H    -0.894564    -4.802767    -3.108002
H    -2.792340     3.272729     4.692054
O    -1.811084     3.272475     4.660675
H    -1.519449     2.868487     5.496283
H     0.947614     5.009635     4.079587
O     0.000780     5.239236     4.130057
H    -0.469666     4.433881     4.383859
H    -1.708883    -4.669067    -0.406931
O    -0.940272    -5.203547    -0.122751
H    -1.282083    -5.896814     0.453581
H    -3.915141     5.817540    -2.605555
O    -4.263134     4.983849    -2.939316
H    -4.105007     4.952637    -3.907099
H    -2.417873    -3.716036     1.900512
O    -2.437935    -4.620835     2.274242
H    -1.498166    -4.861221     2.413147
H    -4.669904    -2.996333    -2.937688
O    -3.816689    -3.227834    -3.342802
H    -3.483070    -4.019057    -2.876223
H     0.332664     1.348296     4.604801
O     0.836794     2.111217     4.274683
H     0.882895     2.767556     4.984159
H    -4.623267    -5.190305    -1.614290
O    -5.332869    -4.847733    -1.043515
H    -5.117265    -5.195974    -0.158183
H     2.362984    -6.477586    -4.069093
O     2.021997    -6.152139    -3.215779
H     2.455089    -6.727903    -2.553000
H     0.495776    -3.378656    -4.031421
O     1.298377    -3.007528    -4.450904
H     0.980666    -2.634353    -5.299261
H     1.969285    -1.772155     2.965227
O     2.127527    -2.701893     2.745520
H     1.444235    -2.915676     2.075874
H    -2.991500    -1.820026    -3.240455
O    -2.572708    -0.932683    -3.170815
H    -3.228620    -0.287476    -3.490474
H    -3.196260     4.950475     1.071571
O    -3.977824     5.323293     0.616257
H    -4.396127     5.877918     1.323155
H     0.872827     2.233138     2.585097
O     0.976197     2.231953     1.614142
H     1.705342     1.611250     1.449855
H     0.187903     5.646193    -0.754674
O     0.709013     6.311153    -1.259985
H     0.847783     7.109380    -0.701115
H     0.327984     7.014388     2.599460
O    -0.031148     6.635739     1.779906
H     0.635274     5.967717     1.517927
H    -2.480311     0.184352     3.319065
O    -2.701921    -0.631809     3.820702
H    -1.942619    -0.671761     4.444074
H    -0.902438     0.517388     6.008844
O    -0.625601     0.001291     5.233230
H     0.089105    -0.601316     5.519370
H     0.723746    -5.013374     1.949584
O     0.179270    -5.126590     2.751969
H     0.324531    -6.049004     3.018883
H    -2.128149    -8.006441     0.440674
O    -1.734599    -7.548548     1.213991
H    -2.465070    -7.212257     1.736662
H    -0.380654     6.857026    -2.319372
O    -1.126884     7.276749    -2.819224
H    -1.917961     7.146505    -2.258080
H    -1.116396     4.291207     0.569383
O    -0.741382     4.356339    -0.325543
H    -1.445579     4.114574    -0.960607
H    -4.416379     2.711137     3.487997
O    -4.418445     2.878315     4.453130
H    -4.500241     1.993711     4.859067
H     2.030375    -3.606229     4.221777
O     1.964703    -4.080470     5.073691
H     2.469806    -3.545208     5.706984
H     4.702844    -3.200244     0.825598
O     4.545131    -3.120951    -0.141124
H     3.684933    -2.646268    -0.225155
H    -2.707444    -0.764459    -1.377334
O    -3.039441    -0.498897    -0.503294
H    -3.839212     0.027480    -0.711360
H    -1.592191    -0.762912    -4.653970
O    -1.084391    -0.542728    -5.456087
H    -0.376409     0.054276    -5.167201
H     1.817840    -1.713237    -3.393562
O     1.906399    -0.967860    -2.768165
H     1.127980    -0.392467    -2.899639
H     3.673172    -3.135855     2.534092
O     4.632980    -3.362073     2.463104
H     4.688851    -4.322881     2.585812
H     3.442172    -6.137590     3.096037
O     3.800528    -5.930609     2.198301
H     3.062707    -5.587904     1.653771
H    -3.326814     1.602741    -4.197915
O    -4.171334     1.129571    -4.010967
H    -4.391465     1.271936    -3.054464
H    -5.083185     4.121236     0.050700
O    -5.519741     3.254586    -0.056865
H    -6.449531     3.372963    -0.340758
H     6.749934    -1.175689    -1.364055
O     5.975652    -1.029309    -0.814229
H     5.558248    -1.898760    -0.620273
H     4.617426    -3.163602    -2.484425
O     3.750557    -2.992675    -2.902692
H     3.757541    -3.609619    -3.660358
H     4.434555    -2.316222     5.609921
O     4.090858    -2.784946     6.400836
H     4.427750    -3.689099     6.316742
H    -0.774085     6.305186     5.078360
O    -1.373725     6.877796     5.616686
H    -1.388010     7.756287     5.178097
H     4.712118    -0.134210    -1.469990
O     3.944089     0.407190    -1.733235
H     3.254079    -0.194206    -2.066899
H    -0.733614     4.521321    -4.040126
O    -1.517109     5.063174    -4.248440
H    -1.368733     5.928827    -3.822723
H     0.668145     3.200375    -2.661564
O     0.676505     3.580071    -3.568867
H     0.727765     2.818636    -4.156668
H    -5.368035    -5.210280     1.755268
O    -4.675360    -5.815915     1.408892
H    -3.828612    -5.404725     1.669412
H     7.905534    -1.672107    -4.034126
O     7.644718    -1.362333    -3.134170
H     7.156022    -0.519314    -3.289126
H     3.737096    -5.060330    -5.312752
O     4.497241    -4.686050    -4.828796
H     4.882149    -5.397842    -4.284128
H    -3.788119    -0.020905     4.908616
O    -4.392265     0.439370     5.540959
H    -5.051356    -0.221377     5.828877
H     3.489024    -5.947333    -0.546063
O     4.361900    -5.696330    -0.860647
H     4.435117    -4.734441    -0.713382
H     5.021456    -0.324449    -4.164051
O     4.488640    -1.035452    -4.557928
H     4.162513    -1.622576    -3.843015
H    -1.157170     1.568303    -3.950363
O    -1.808215     2.188427    -4.335972
H    -1.448883     2.523789    -5.180093
H     4.915068    -6.317329    -2.339057
O     5.252094    -6.637077    -3.205024
H     6.069860    -7.118060    -3.017382
H     8.769431    -5.076243    -2.927878
O     8.077634    -5.496964    -2.372613
H     8.114180    -6.453960    -2.477623
H     2.334543     4.709666     0.457535
O     1.753095     4.687862     1.226951
H     1.397944     3.766368     1.300787
H    -4.411323    -2.673474     4.194321
O    -5.305957    -2.336431     3.989395
H    -5.169117    -1.551844     3.418447
H    -5.833953    -3.227223     1.274162
O    -6.296693    -3.787685     1.940602
H    -6.109800    -3.353883     2.792808
H     1.668778     3.436012     6.862425
O     1.045872     3.951766     6.328693
H     0.261114     4.101099     6.898775
H     5.005144    -2.183860     3.606355
O     5.022227    -1.467364     4.272643
H     4.209425    -0.912801     4.115636
H     2.398362    -5.602417     4.809925
O     2.782286    -6.483743     4.548417
H     2.039780    -7.066730     4.367758
H     2.295485    -4.501228    -6.815670
O     2.125071    -4.992932    -6.002347
H     1.857253    -4.305209    -5.344775
H     6.459447    -4.100819    -0.515496
O     7.212992    -4.502673    -0.051794
H     7.722897    -4.922325    -0.772537
H    -1.747721     4.446898     7.695068
O    -0.850276     4.545930     8.083415
H    -0.671593     5.505426     8.111184
H    -5.108770     5.685939    -5.607535
O    -4.499510     4.923813    -5.628697
H    -3.741080     5.141904    -6.191741
H     3.319187    -2.505260    -8.452703
O     3.230144    -3.040510    -7.653288
H     4.105549    -3.016307    -7.221871
H    -0.666648     8.819050    -2.267329
O    -0.547118     9.646186    -1.745549
H     0.214107     9.471814    -1.167373
H     2.063394    -0.938890     5.197774
O     1.489596    -1.467168     5.782041
H     1.581534    -1.125311     6.680732
H     5.234240    -2.007476    -5.701919
O     5.583605    -2.771108    -6.225643
H     5.310423    -3.563498    -5.711281
H     5.703605    -5.230951     4.667879
O     5.179144    -5.149912     5.493565
H     4.459377    -5.783395     5.403920
H    -3.986993     1.100232     6.984101
O    -3.798444     1.573574     7.830071
H    -4.676051     1.956395     8.089771
H    -1.863989     9.598993    -0.735508
O    -2.725397     9.468973    -0.263743
H    -3.337063     10.097156    -0.651330
H    -5.943321     4.671368    -2.955453
O    -6.850905     4.550750    -3.302079
H    -6.756845     3.850921    -3.981291
H     0.119069    -7.076237    -1.180511
O     0.589648    -7.507418    -0.434962
H    -0.086234    -7.717307     0.212203
H    -7.632793     3.765918    -1.997707
O    -7.895020     3.175762    -1.260403
H    -7.748433     2.268695    -1.602589
H     3.965570    -0.919958     6.977905
O     3.971852     0.044276     6.972247
H     4.784480     0.337509     6.543516
H     2.255822     5.791514    -1.171007
O     3.191798     5.500934    -1.055251
H     3.371873     4.963694    -1.849644
H     6.571214    -5.930734     0.654271
O     6.203195    -6.669332     1.185021
H     5.297216    -6.395332     1.410124
H    -3.892136     4.681226     7.769799
O    -3.322816     4.221912     7.110693
H    -3.513869     3.277648     7.217861
H     5.788899    -7.946743     0.110820
O     5.505489    -8.631801    -0.530675
H     4.675011    -8.308747    -0.924454
H    -0.574071     2.001913     7.682325
O    -1.205470     1.938327     6.945575
H    -2.074454     1.793079     7.339621
H    -6.375973    -0.152689     1.028556
O    -6.694114    -0.236679     0.114875
H    -7.613095    -0.506649     0.130628
H    -5.356539    -3.086638    -0.631718
O    -5.108999    -2.390033     0.001468
H    -5.677559    -1.615268    -0.184003
H     4.311625     5.573243     0.333468
O     4.642926     5.672045     1.239826
H     3.945878     6.178953     1.691931
H    -9.025415    -1.773237    -2.298454
O    -8.480372    -1.572851    -1.510155
H    -8.608766    -2.310553    -0.874198
H    -5.510461     3.461872    -5.546930
O    -6.026933     2.748433    -5.135820
H    -5.359724     2.163574    -4.722235
H     3.205541    -0.876502    -5.665418
O     2.351209    -0.996813    -6.134200
H     2.440167    -1.844205    -6.609949
H     8.141534    -1.324845    -6.028395
O     8.150792    -2.190194    -5.574594
H     7.296268    -2.591664    -5.828433
H     7.642923     1.015388    -6.302719
O     7.457233     0.168088    -6.719468
H     6.476125     0.115583    -6.758148
H    -7.845544    -3.725419     0.881949
O    -8.527222    -3.619469     0.200854
H    -8.419713    -4.369042    -0.412525
H    -2.423599     8.713521     1.298596
O    -2.273418     8.122947     2.050162
H    -1.501264     7.572456     1.827704
H    -4.460203     6.400607     3.489852
O    -4.629449     6.828723     2.634199
H    -3.867167     7.417037     2.498287
H     3.409926     3.452267    -3.573364
O     3.253836     4.420851    -3.477317
H     2.289108     4.483380    -3.587340
H    -6.094196    -1.623514    -3.478966
O    -6.178809    -2.206084    -2.697423
H    -6.964076    -1.900800    -2.189636
H     6.460907     1.036003     4.743878
O     6.063791     1.571824     5.447378
H     6.250438     2.491781     5.159615
H     1.380456     1.730086    -5.829485
O     1.185063     1.131385    -5.077737
H     1.551983     0.270178    -5.349029
H    -2.515589     2.910960     10.470928
O    -2.300743     2.004614     10.195523
H    -2.895805     1.805957     9.460751
H     7.628471    -0.503657     3.085794
O     6.876705     0.069789     3.254562
H     6.184915    -0.533552     3.630201
H    -5.914467    -7.978666    -0.542120
O    -5.047111    -8.037365    -0.069718
H    -5.012075    -7.270449     0.531212
H    -5.157079    -0.129755    -4.744367
O    -5.772182    -0.842360    -4.987064
H    -6.610520    -0.401774    -5.186877
H     1.917859    -0.183643    -7.526564
O     1.717030     0.290365    -8.369506
H     2.296506    -0.111281    -9.022360
H     4.907743    -1.365408    -9.311589
O     3.982849    -1.137588    -9.595689
H     3.965332    -1.253506    -10.545018
H     7.567039    -2.580224     4.195554
O     7.716434    -2.612621     3.236341
H     7.225945    -3.403999     2.960674
H     6.735334    -5.901138     2.667733
O     6.794408    -5.227836     3.371041
H     7.669305    -5.312980     3.790733
H    -1.843501     8.918945     3.504705
O    -1.599015     9.221465     4.404660
H    -2.449352     9.350416     4.858256
H    -7.372309     1.553181    -5.280619
O    -7.946063     0.806964    -5.039234
H    -8.848904     1.204409    -4.964515
H     6.958430    -1.053641    -8.405495
O     6.378772    -1.775123    -8.673004
H     6.149954    -2.228353    -7.843101
H    -1.665736     6.245950    -7.022968
O    -2.062608     5.419070    -6.752816
H    -1.815997     5.285740    -5.789030
H    -0.022561     3.269296     9.017983
O     0.175952     2.349233     9.270814
H    -0.623019     2.081576     9.774343
H     6.778010    -2.769124    -2.712061
O     6.248191    -3.515463    -2.374876
H     6.719090    -4.324651    -2.622278
H    -4.049580    -3.080419    -4.980051
O    -4.203246    -2.965115    -5.944441
H    -4.751256    -2.172488    -5.999034
H     1.961050     2.148212     8.461672
O     2.626176     2.264567     7.773509
H     3.050949     1.395765     7.656392
H    -6.880401    -5.237834    -1.452145
O    -7.806667    -5.481067    -1.685628
H    -7.930398    -5.097528    -2.578474
H    -3.846494     5.216395     5.688100
O    -3.814282     5.986685     5.099695
H    -2.881253     6.283100     5.197000
H    -7.872517     0.062398    -2.002367
O    -7.383021     0.788095    -2.412345
H    -7.608820     0.779908    -3.366260
H     5.843861     0.129060     0.411895
O     5.618666     0.848193     1.034432
H     6.127314     0.651579     1.848054
H    -6.234363     3.260843     7.374836
O    -6.107501     2.740317     8.202237
H    -6.705685     1.977872     8.110168
H     2.306096    -8.079698    -0.878562
O     2.985604    -8.062821    -1.572554
H     2.764579    -8.776062    -2.188305
H    -2.711703    -3.961517    -6.232180
O    -1.958330    -4.527591    -5.999769
H    -1.683867    -4.238054    -5.101356
H    -5.658563     3.718807     5.290934
O    -6.310438     4.111793     5.907521
H    -6.148661     5.056202     5.897955
H    -0.985105    -7.120028    -3.211235
O    -0.520625    -6.449702    -2.676825
H     0.390567    -6.378945    -3.048652
H     4.434308     1.997846     5.131178
O     3.492460     2.235732     5.009550
H     3.105976     2.247802     5.890541
H     4.090095     4.634036     6.310765
O     4.170459     5.366498     5.695361
H     3.605450     5.126917     4.922262
H     2.754025     3.598751     3.926019
O     2.574366     4.538883     3.762385
H     2.457264     4.640016     2.795950
H     9.403581     0.222870    -1.061712
O     8.596087     0.382775    -0.569574
H     8.420683    -0.438054    -0.079556
H    -2.133133     5.270392     10.646475
O    -2.854274     4.639461     10.874125
H    -3.075231     4.813435     11.789303
H     7.987153    -3.004943     0.323042
O     8.405661    -2.158027     0.581954
H     8.337330    -2.156490     1.544105
H     5.360823     3.653458     3.535010
O     6.014740     3.918641     4.203605
H     5.598996     4.634070     4.706506
H    -4.238185     4.970284     9.774339
O    -4.870001     5.121699     9.051278
H    -5.479854     4.371482     9.045160
H    -6.986474    -3.497556    -3.528836
O    -7.602695    -4.112391    -3.979488
H    -7.078867    -4.548152    -4.683465
H    -0.007023     6.083351     10.774659
O    -0.871749     6.413538     10.526259
H    -0.754783     6.846869     9.661475
H     2.604049     1.501141    -4.109194
O     3.480859     1.855507    -3.867388
H     3.800658     1.338816    -3.097682
H    -6.982846    -0.269471     7.185717
O    -7.494291     0.506625     7.467405
H    -8.115538     0.691527     6.761991
H    -2.888144    -9.648264    -0.753800
O    -2.650247    -8.778486    -1.124392
H    -3.512008    -8.313602    -1.054892
H    -10.055538     3.054337    -4.930275
O    -10.171277     2.135918    -4.652093
H    -10.389376     2.217295    -3.702622
H    -2.064673    -3.056265     4.584428
O    -2.939233    -3.498091     4.649761
H    -2.928127    -4.113747     3.891473
H    -0.157344    -8.004899     2.447527
O     0.667681    -7.789934     2.896410
H     1.386809    -8.085605     2.310792
H     6.702490    -2.393080     6.387112
O     7.155147    -3.100259     5.922745
H     6.527067    -3.836510     5.880046
H    -5.277376    -2.049371     6.908611
O    -5.954253    -1.552324     6.424317
H    -5.934066    -1.926263     5.514103
H     0.854878     3.043530    -7.118502
O     1.773417     2.715194    -7.173430
H     1.762987     1.969309    -7.801311
H    -3.984520     8.714923     6.674092
O    -3.980763     8.715574     5.716725
H    -4.102780     7.788454     5.446041
H    -2.069353     10.304873    -2.726341
O    -2.970682     10.485276    -3.029859
H    -2.898662     11.121481    -3.740726
H     9.417498    -4.064608     4.040399
O     9.138686    -4.745140     4.660753
H     8.705475    -4.276053     5.384802
H    -0.697751    -5.992808    -5.877542
O     0.006462    -6.558327    -5.544242
H     0.841587    -6.094458    -5.757839
H     1.812123     8.264875     0.678841
O     1.510154     8.588654    -0.198486
H     2.326011     8.630017    -0.726912
H     3.516039     2.945538    -6.659694
O     4.343374     2.656246    -6.249259
H     4.096625     2.378981    -5.341847
H     3.727328     7.124646    -1.214076
O     3.931392     8.061489    -1.424340
H     4.303013     8.008758    -2.316878
H     4.422864     0.014306    -7.916013
O     4.797531     0.158944    -7.045286
H     4.613034     1.089674    -6.799362
H     6.035160     1.935403    -0.469606
O     6.601885     2.132475    -1.229350
H     7.427032     1.653942    -1.034907
H     6.715515    -8.423591    -1.631431
O     7.353585    -8.209449    -2.365411
H     7.721081    -9.042497    -2.655767
H    -5.261532    -5.796736    -5.458048
O    -5.883204    -5.125859    -5.766379
H    -5.335693    -4.354311    -6.001312
H     0.654279     7.139653     7.609363
O    -0.248225     7.164136     7.966715
H    -0.801712     7.179943     7.147889
H    -8.872401    -2.855412    -4.148725
O    -9.395041    -2.048875    -3.979239
H    -9.109850    -1.380911    -4.606530
H    -2.379094    -5.999340    -2.183539
O    -3.263192    -5.726057    -2.448142
H    -3.439245    -6.085426    -3.343212
H    -2.953454    -5.903640    -5.448511
O    -3.552117    -6.515815    -4.977780
H    -3.065094    -7.335141    -4.814556
H    -1.374333     3.732102    -6.990353
O    -0.833012     2.976850    -6.720235
H    -1.066453     2.192763    -7.273150
H    -0.176737     0.429630    -8.230522
O    -1.074091     0.661795    -7.948637
H    -1.249776     0.135444    -7.152648
H    -10.418036     4.024820    -2.763521
O    -10.484772     3.244185    -2.197989
H    -9.656440     3.218503    -1.687331
H     4.574378     4.073084     1.729065
O     4.367283     3.150909     2.004346
H     5.084954     2.577230     1.723025
H     6.500786     1.413548    -4.214248
O     6.197252     0.786706    -3.523013
H     6.225118     1.279493    -2.677538
H     9.648309    -2.213809    -0.927415
O     9.926851    -1.995283    -1.825630
H     9.126615    -1.657687    -2.270127
H     9.992772    -3.300871    -3.098966
O     9.729246    -3.951397    -3.776705
H     9.335820    -3.442609    -4.496261
H    -8.113659    -8.364446    -0.903416
O    -7.385505    -8.025692    -1.431944
H    -7.632980    -7.076753    -1.588566
H     4.163533     6.089759    -3.807286
O     4.822676     6.792390    -3.718626
H     5.659636     6.340063    -3.580344
H     0.144751    -8.164285    -5.260869
O     0.173624    -9.147629    -5.133361
H     0.322760    -9.508615    -6.006991
H    -2.202086    -8.748316    -2.896617
O    -1.990160    -8.407665    -3.786046
H    -1.306070    -8.961102    -4.189905
H     2.220494    -10.814451    -3.526522
O     2.182945    -9.859190    -3.514058
H     1.395739    -9.589121    -4.037194
H     6.846962     3.348125    -4.562666
O     6.908609     2.672306    -5.265501
H     6.116042     2.804919    -5.807648
H    -3.565272    -3.765995     7.685959
O    -3.682856    -2.977855     7.157102
H    -3.427307    -3.213405     6.238995
H    -0.605445    -3.355988    -6.751507
O     0.022555    -2.622662    -6.755621
H    -0.461819    -1.849521    -6.412525
H     0.626362     0.424061     8.740516
O     0.637322    -0.288774     8.097838
H    -0.283847    -0.579871     8.006917
H    -5.833313     7.355499    -4.258991
O    -6.333533     6.737148    -4.823026
H    -6.620068     6.003817    -4.234685
H    -4.284637     9.091192    -3.261857
O    -4.818736     8.293504    -3.159137
H    -4.410825     7.812737    -2.420753
H    -9.706162     5.776312    -4.667693
O    -10.238057     4.969846    -4.508089
H    -11.118243     5.169749    -4.828659
H     2.745579     6.491288     6.151538
O     1.785009     6.585326     6.247389
H     1.443887     5.671478     6.141324
H     4.790723     8.546098     0.106498
O     5.105898     8.545043     1.028199
H     5.514482     7.681286     1.157605
H     4.178964    -7.415807    -4.369834
O     3.422991    -7.699172    -4.915726
H     3.143282    -8.542553    -4.544465
H     0.353700     8.635747     4.246257
O     1.033505     7.993464     4.017793
H     1.259273     7.498668     4.831489
H     5.240885     4.200695    -3.147234
O     6.202268     4.173198    -3.092061
H     6.410816     3.589797    -2.345622
H    -2.585639    -1.585726     7.546746
O    -2.077780    -0.792001     7.770510
H    -2.705788    -0.168297     8.145230
H    -9.028831     7.916678    -4.160268
O    -8.962468     7.334021    -4.918265
H    -8.004623     7.172979    -5.051767
H     3.554561    -8.988983     1.056567
O     2.878123    -8.356970     1.305062
H     3.351745    -7.552827     1.588936
H     3.567954     8.162775     1.847520
O     2.778412     7.597190     1.956168
H     2.329782     7.829257     2.782016
N    -3.994783    -10.586457     0.481562
H    -4.586125    -9.807777     0.473883
H    -4.550000    -11.324700     0.216657
