603

H     0.196209     3.036346    -0.686524
O     0.720474     2.368961    -1.178775
H     1.658663     2.497761    -0.902936
H    -0.085466    -1.294786     3.149419
O     0.306958    -0.594773     2.604907
H    -0.173229     0.217970     2.836067
H    -2.403250     2.413044    -0.551641
O    -2.191439     1.946243     0.274030
H    -2.208525     0.997265     0.053251
H    -4.672436     0.553063     2.169280
O    -4.989237    -0.380259     2.181269
H    -4.481116    -0.858636     1.518037
H     0.057349    -0.301071     0.949619
O    -0.137066    -0.065738     0.021577
H     0.201438     0.831034    -0.098910
H    -0.163608    -3.564026     3.781630
O    -0.443389    -2.732616     4.198777
H     0.200110    -2.560441     4.902570
H    -4.896996     2.531812     1.309935
O    -4.255401     2.125743     1.923849
H    -3.412398     2.108208     1.412388
H    -3.251015     3.898157    -2.230563
O    -2.512616     3.303701    -1.996352
H    -2.152729     3.012679    -2.854477
H    -0.127968    -3.797749     0.507086
O     0.210659    -2.978926     0.923419
H    -0.577861    -2.493002     1.233587
H    -2.385419    -1.530030     2.464627
O    -2.194303    -1.997312     1.624350
H    -2.452318    -1.411546     0.893777
H     2.071342    -1.438026    -1.117494
O     2.301615    -1.688691    -0.199161
H     1.512014    -2.116322     0.184060
H    -1.400358     1.834794     1.903005
O    -1.492455     1.437868     2.778975
H    -1.481610     2.150611     3.444466
H     0.208764    -2.699840    -1.567987
O    -0.546517    -2.088085    -1.625899
H    -0.369268    -1.361309    -0.991946
H    -3.438632    -2.922936    -0.396036
O    -2.719921    -3.414531    -0.815034
H    -2.009957    -2.783413    -1.032198
H     2.761374     0.142323     2.935302
O     2.859594    -0.038096     3.897383
H     2.948201     0.855392     4.300745
H    -3.528407     6.382991    -0.574531
O    -3.295735     7.050679    -1.270489
H    -3.152078     7.894193    -0.798140
H     3.894261     0.594344     1.188869
O     2.943334     0.413442     1.302652
H     2.707650    -0.340963     0.725109
H    -5.783356     0.840199    -1.621860
O    -4.873599     1.169535    -1.495496
H    -4.987314     1.997544    -0.983842
H    -1.226936     5.402870     2.197105
O    -1.853358     4.658138     2.078087
H    -1.938933     4.240741     2.941016
H     3.485664     2.771517     0.423550
O     3.240010     2.728138    -0.516132
H     3.573366     1.884983    -0.864830
H     1.494268    -4.693978    -2.242649
O     1.557037    -3.915382    -1.671135
H     2.352139    -3.454516    -2.021302
H    -0.921049    -0.084807    -2.553664
O    -0.287602     0.568487    -2.877669
H    -0.028831     1.151550    -2.140876
H     1.697809    -4.678676    -0.170942
O     1.804263    -5.314459     0.572771
H     1.341599    -6.126375     0.277602
H    -1.223591    -3.265908    -2.879972
O    -1.047656    -3.950107    -3.539219
H    -0.922063    -4.796228    -3.068480
H    -2.789541     3.316906     4.679687
O    -1.805060     3.318284     4.656488
H    -1.521727     2.916429     5.495602
H     0.948915     5.043918     4.064101
O     0.003392     5.280306     4.107086
H    -0.474467     4.480707     4.369963
H    -1.731335    -4.646221    -0.370071
O    -0.966343    -5.186178    -0.083053
H    -1.314587    -5.871628     0.496495
H    -3.918402     5.832248    -2.625644
O    -4.270448     4.997132    -2.950509
H    -4.115513     4.957651    -3.918787
H    -2.437003    -3.680981     1.934604
O    -2.455295    -4.585122     2.310630
H    -1.515788    -4.821744     2.454698
H    -4.692531    -2.981917    -2.906279
O    -3.839230    -3.214822    -3.310674
H    -3.508620    -4.007307    -2.843141
H     0.324027     1.392042     4.608248
O     0.833027     2.151091     4.275673
H     0.876019     2.811542     4.981284
H    -4.653394    -5.170034    -1.574105
O    -5.356688    -4.815868    -1.002700
H    -5.145237    -5.168150    -0.117205
H     2.334145    -6.481567    -4.026851
O     1.995293    -6.151266    -3.174658
H     2.428520    -6.723683    -2.509392
H     0.472300    -3.379915    -4.002058
O     1.275417    -3.012924    -4.424522
H     0.957054    -2.643535    -5.274367
H     1.953671    -1.740265     2.985637
O     2.110772    -2.671096     2.769490
H     1.425892    -2.886640     2.102052
H    -3.012304    -1.811116    -3.216139
O    -2.590952    -0.923991    -3.152677
H    -3.246734    -0.279886    -3.474421
H    -3.152197     4.954642     1.028230
O    -3.940671     5.307897     0.567306
H    -4.363163     5.849095     1.274484
H     0.863837     2.264586     2.585282
O     0.968445     2.261115     1.614259
H     1.694698     1.636453     1.452170
H     0.182402     5.661561    -0.772841
O     0.704543     6.323753    -1.280958
H     0.844356     7.124068    -0.725982
H     0.324741     7.046757     2.573000
O    -0.038946     6.668878     1.756146
H     0.623920     5.996107     1.495577
H    -2.492528     0.225497     3.331954
O    -2.711986    -0.589963     3.835107
H    -1.954610    -0.625713     4.460607
H    -0.913613     0.571070     6.018210
O    -0.634551     0.052026     5.245013
H     0.076654    -0.551812     5.535737
H     0.704481    -4.984198     1.986973
O     0.160876    -5.092468     2.790631
H     0.305338    -6.012461     3.064880
H    -2.119548    -8.082474     0.455171
O    -1.798542    -7.593045     1.239986
H    -2.585652    -7.281259     1.694295
H    -0.382945     6.866139    -2.343441
O    -1.127936     7.286365    -2.844771
H    -1.919613     7.158937    -2.283965
H    -1.122154     4.313641     0.560365
O    -0.749353     4.378542    -0.335265
H    -1.453155     4.131289    -0.969013
H    -4.350105     2.646622     3.447254
O    -4.393644     2.849957     4.409673
H    -4.445433     1.967082     4.832433
H     2.012921    -3.567180     4.250833
O     1.948478    -4.038509     5.104459
H     2.452370    -3.499715     5.735758
H     4.683178    -3.184271     0.850071
O     4.524808    -3.109936    -0.116938
H     3.665472    -2.633840    -0.202730
H    -2.724558    -0.746255    -1.359680
O    -3.052774    -0.473714    -0.486407
H    -3.854665     0.049038    -0.695137
H    -1.612602    -0.764217    -4.637164
O    -1.104308    -0.548742    -5.440426
H    -0.395197     0.048190    -5.154510
H     1.797411    -1.713668    -3.374316
O     1.888243    -0.965136    -2.752995
H     1.110268    -0.389463    -2.886196
H     3.654948    -3.109196     2.559370
O     4.614297    -3.337720     2.488271
H     4.669268    -4.297595     2.617171
H     3.418929    -6.107651     3.137151
O     3.776305    -5.908120     2.237231
H     3.039561    -5.563994     1.692380
H    -3.341979     1.607791    -4.191005
O    -4.187509     1.137837    -4.001816
H    -4.406895     1.283466    -3.045468
H    -5.091959     4.144955     0.031480
O    -5.533808     3.280218    -0.058288
H    -6.463499     3.397040    -0.344840
H     6.732096    -1.174539    -1.351517
O     5.958498    -1.024008    -0.801832
H     5.539748    -1.891716    -0.603153
H     4.595211    -3.164508    -2.459949
O     3.728187    -2.994290    -2.878128
H     3.733264    -3.614810    -3.632854
H     4.420550    -2.274957     5.630318
O     4.076966    -2.738913     6.423963
H     4.411741    -3.644183     6.344345
H    -0.709171     6.371494     5.055612
O    -1.324713     6.911058     5.612483
H    -1.442349     7.781998     5.171871
H     4.695957    -0.129888    -1.461228
O     3.928784     0.411682    -1.726562
H     3.237314    -0.190136    -2.056593
H    -0.743517     4.521229    -4.050879
O    -1.525690     5.064419    -4.260983
H    -1.373738     5.932085    -3.841331
H     0.657112     3.205560    -2.666818
O     0.665521     3.581113    -3.575926
H     0.714780     2.816620    -4.159972
H    -5.389461    -5.187015     1.789714
O    -4.691847    -5.782084     1.436495
H    -3.852085    -5.365383     1.708217
H     7.884507    -1.687043    -4.020055
O     7.624904    -1.372168    -3.121476
H     7.137707    -0.529047    -3.280430
H     3.708704    -5.073802    -5.277873
O     4.470171    -4.698971    -4.796320
H     4.854021    -5.408750    -4.248429
H    -3.801912     0.029525     4.923679
O    -4.401545     0.494312     5.554935
H    -5.063502    -0.161239     5.847306
H     3.463581    -5.935266    -0.505782
O     4.336544    -5.688145    -0.823077
H     4.412099    -4.725573    -0.680910
H     5.002944    -0.334757    -4.154445
O     4.468603    -1.046881    -4.544163
H     4.141711    -1.629484    -3.825958
H    -1.172036     1.569897    -3.945438
O    -1.821481     2.190475    -4.333083
H    -1.462808     2.519631    -5.179911
H     4.887359    -6.317646    -2.298543
O     5.222212    -6.643726    -3.162999
H     6.039958    -7.124125    -2.973811
H     8.743172    -5.086590    -2.896998
O     8.051002    -5.503532    -2.339217
H     8.086323    -6.461060    -2.439305
H     2.326901     4.728792     0.444277
O     1.744404     4.713586     1.213088
H     1.390211     3.791729     1.293483
H    -4.427292    -2.623115     4.224108
O    -5.321244    -2.286425     4.017648
H    -5.184567    -1.504430     3.443385
H    -5.852303    -3.190428     1.308943
O    -6.316022    -3.746893     1.976837
H    -6.129450    -3.309770     2.827213
H     1.665345     3.490634     6.853424
O     1.045040     4.008800     6.318801
H     0.258932     4.157262     6.888315
H     4.989796    -2.153759     3.625260
O     5.009033    -1.433819     4.287635
H     4.196837    -0.878725     4.128931
H     2.379441    -5.560383     4.849211
O     2.760406    -6.444512     4.591428
H     2.015874    -7.026713     4.417427
H     2.266408    -4.521502    -6.781811
O     2.096310    -5.008343    -5.965486
H     1.829909    -4.316175    -5.311812
H     6.437247    -4.094656    -0.487829
O     7.190141    -4.496010    -0.022609
H     7.698846    -4.920013    -0.741649
H    -1.751460     4.504677     7.692344
O    -0.848521     4.605874     8.070036
H    -0.670946     5.564580     8.099918
H    -5.117554     5.686249    -5.621281
O    -4.508636     4.923723    -5.637440
H    -3.751010     5.136971    -6.203389
H     3.292670    -2.535314    -8.430270
O     3.203674    -3.066174    -7.627927
H     4.079530    -3.040946    -7.197581
H    -0.668112     8.828724    -2.298921
O    -0.547807     9.657511    -1.779366
H     0.215858     9.485483    -1.203792
H     2.051137    -0.895405     5.214219
O     1.478167    -1.421557     5.800959
H     1.567774    -1.073793     6.697729
H     5.211349    -2.026085    -5.683785
O     5.559067    -2.793057    -6.203705
H     5.284758    -3.582256    -5.685161
H     5.683679    -5.197072     4.702060
O     5.160189    -5.110707     5.527760
H     4.439095    -5.743224     5.442438
H    -3.996080     1.167475     6.994321
O    -3.804247     1.645228     7.836506
H    -4.681197     2.038084     8.090305
H    -1.860570     9.617790    -0.769034
O    -2.722496     9.496064    -0.294790
H    -3.331777     10.119741    -0.693665
H    -5.951727     4.686156    -2.963672
O    -6.859647     4.566877    -3.309225
H    -6.768096     3.862576    -3.984392
H     0.094679    -7.060513    -1.133238
O     0.558000    -7.494771    -0.384051
H    -0.122145    -7.688707     0.264104
H    -7.642998     3.788176    -2.001390
O    -7.903562     3.203853    -1.259104
H    -7.761299     2.293666    -1.595499
H     3.954066    -0.870547     6.991878
O     3.962999     0.093613     6.980129
H     4.776502     0.381948     6.549902
H     2.250663     5.801237    -1.191087
O     3.186310     5.510467    -1.074244
H     3.364981     4.968303    -1.865792
H     6.546686    -5.918790     0.691206
O     6.177609    -6.654342     1.225568
H     5.272553    -6.377344     1.450561
H    -3.898203     4.747957     7.801595
O    -3.317413     4.291996     7.146469
H    -3.493221     3.343886     7.293151
H     5.760788    -7.936221     0.159640
O     5.474701    -8.624715    -0.477194
H     4.645778    -8.300714    -0.873237
H    -0.583776     2.060025     7.686067
O    -1.213522     1.995888     6.948288
H    -2.085364     1.860000     7.340862
H    -6.390181    -0.116718     1.047265
O    -6.709511    -0.202078     0.134032
H    -7.628034    -0.473531     0.152457
H    -5.375648    -3.061808    -0.595697
O    -5.123840    -2.357770     0.028101
H    -5.695218    -1.586125    -0.160515
H     4.307351     5.587192     0.312132
O     4.640161     5.691259     1.217429
H     3.943711     6.199410     1.668287
H    -9.045409    -1.748519    -2.269669
O    -8.498191    -1.545040    -1.483792
H    -8.626426    -2.279883    -0.844069
H    -5.522892     3.462823    -5.548903
O    -6.040784     2.753814    -5.132302
H    -5.374810     2.168743    -4.716737
H     3.184736    -0.891431    -5.651562
O     2.329810    -1.012497    -6.118965
H     2.416493    -1.862618    -6.590232
H     8.119673    -1.350531    -6.016123
O     8.127636    -2.213507    -5.557795
H     7.272188    -2.614677    -5.809031
H     7.624955     0.989253    -6.302284
O     7.437350     0.140027    -6.714196
H     6.456116     0.089165    -6.752022
H    -7.866837    -3.688204     0.920098
O    -8.543310    -3.583197     0.233442
H    -8.443961    -4.344556    -0.365478
H    -2.433599     8.739523     1.269176
O    -2.316434     8.133244     2.014205
H    -1.524650     7.600365     1.817408
H    -4.280098     6.332933     3.379091
O    -4.640110     6.831550     2.613997
H    -3.913174     7.450995     2.418322
H     3.398733     3.448065    -3.581648
O     3.244191     4.417433    -3.490024
H     2.279502     4.480622    -3.600316
H    -6.115482    -1.609654    -3.453547
O    -6.198882    -2.187258    -2.668556
H    -6.984240    -1.880127    -2.161738
H     6.452511     1.068786     4.744727
O     6.057058     1.609331     5.445548
H     6.245734     2.527172     5.153085
H     1.364586     1.717803    -5.827564
O     1.169197     1.123716    -5.072185
H     1.533417     0.260116    -5.339491
H    -2.516604     2.984809     10.471340
O    -2.302742     2.077873     10.197203
H    -2.901214     1.878664     9.465003
H     7.615679    -0.481235     3.093987
O     6.865040     0.094471     3.260052
H     6.172433    -0.505643     3.639607
H    -5.659677    -8.052375    -0.698134
O    -4.925684    -8.119202    -0.050529
H    -4.931088    -7.300971     0.470031
H    -5.175670    -0.124579    -4.728323
O    -5.791630    -0.837299    -4.967926
H    -6.630043    -0.396955    -5.167858
H     1.896821    -0.205789    -7.515105
O     1.696493     0.264521    -8.360222
H     2.274284    -0.141913    -9.011601
H     4.882886    -1.402479    -9.296497
O     3.958155    -1.174468    -9.580837
H     3.939562    -1.295009    -10.529576
H     7.551413    -2.551939     4.214487
O     7.699954    -2.589528     3.255301
H     7.207808    -3.381403     2.984153
H     6.713054    -5.879490     2.704469
O     6.773230    -5.202582     3.404072
H     7.648298    -5.286494     3.823839
H    -2.010593     8.832887     3.464994
O    -1.815185     9.183568     4.364494
H    -2.683821     9.208782     4.797285
H    -7.388828     1.559232    -5.270696
O    -7.963166     0.815086    -5.024884
H    -8.865532     1.213856    -4.951449
H     6.935040    -1.089468    -8.393718
O     6.353855    -1.811298    -8.656909
H     6.124928    -2.259783    -7.824486
H    -1.673997     6.232805    -7.042183
O    -2.072829     5.408490    -6.767157
H    -1.825542     5.279231    -5.803171
H    -0.025643     3.334050     9.013302
O     0.172628     2.415394     9.271413
H    -0.627907     2.151315     9.775211
H     6.756080    -2.774916    -2.691368
O     6.225414    -3.518720    -2.349838
H     6.694838    -4.329826    -2.593673
H    -4.073736    -3.078879    -4.947970
O    -4.225899    -2.968073    -5.913344
H    -4.774245    -2.175957    -5.972008
H     1.955034     2.209684     8.459849
O     2.620542     2.320884     7.770949
H     3.043392     1.450493     7.659170
H    -6.908990    -5.201734    -1.400104
O    -7.823777    -5.472764    -1.646963
H    -7.956292    -5.071994    -2.530815
H    -3.686992     5.129791     5.535305
O    -3.536029     5.851170     4.893198
H    -2.626017     6.159667     5.126432
H    -7.888243     0.086292    -1.982770
O    -7.398998     0.809754    -2.397428
H    -7.625496     0.795612    -3.351004
H     5.829845     0.141155     0.418310
O     5.606756     0.864004     1.037314
H     6.115621     0.670224     1.851536
H    -6.231701     3.357249     7.375970
O    -6.100682     2.830111     8.199182
H    -6.707483     2.074725     8.110332
H     2.277609    -8.067456    -0.825535
O     2.955696    -8.055879    -1.520761
H     2.732276    -8.771476    -2.132646
H    -2.738200    -3.969184    -6.197157
O    -1.984195    -4.534042    -5.963188
H    -1.710002    -4.240842    -5.065900
H    -5.831743     3.661068     5.221777
O    -6.538243     3.974767     5.814483
H    -6.592361     4.932229     5.659270
H    -1.015609    -7.114779    -3.153481
O    -0.544406    -6.443397    -2.626189
H     0.363694    -6.374471    -3.005585
H     4.427491     2.036321     5.129435
O     3.486566     2.277355     5.007233
H     3.099947     2.291700     5.888232
H     4.090638     4.679294     6.295208
O     4.169054     5.409367     5.676639
H     3.604981     5.164355     4.904616
H     2.748448     3.634466     3.917826
O     2.572078     4.574288     3.747816
H     2.453291     4.669003     2.780897
H     9.388569     0.220865    -1.058800
O     8.581563     0.384600    -0.567119
H     8.405294    -0.433267    -0.072494
H    -2.128441     5.344853     10.636485
O    -2.847151     4.713753     10.869023
H    -3.072852     4.897377     11.781067
H     7.967525    -2.997430     0.343994
O     8.387632    -2.149897     0.598073
H     8.320263    -2.143226     1.560281
H     5.355542     3.681864     3.523645
O     6.011201     3.950599     4.189111
H     5.597377     4.668858     4.689206
H    -4.235593     5.042180     9.764241
O    -4.857254     5.217300     9.038434
H    -5.484489     4.481738     9.015964
H    -7.009503    -3.482619    -3.493344
O    -7.628905    -4.095475    -3.941850
H    -7.106395    -4.538845    -4.642085
H    -0.000620     6.153790     10.758805
O    -0.863467     6.487352     10.508578
H    -0.743524     6.916500     9.642224
H     2.588937     1.495794    -4.107290
O     3.466460     1.850087    -3.867562
H     3.785941     1.336330    -3.095771
H    -6.993732    -0.195035     7.203689
O    -7.501337     0.582914     7.486035
H    -8.118592     0.774454     6.778779
H    -2.742756    -9.869551    -0.816797
O    -2.679892    -8.928282    -0.978958
H    -3.586367    -8.561710    -0.740245
H    -10.068949     3.067185    -4.925533
O    -10.185458     2.150108    -4.643427
H    -10.403366     2.235536    -3.694274
H    -2.081220    -3.008197     4.613552
O    -2.955222    -3.449787     4.682891
H    -2.947924    -4.068738     3.927751
H    -0.184920    -7.970334     2.499141
O     0.640781    -7.758557     2.947673
H     1.360019    -8.055383     2.362551
H     6.689229    -2.352010     6.405925
O     7.139931    -3.062288     5.944373
H     6.510489    -3.797636     5.906622
H    -5.290466    -1.983674     6.935897
O    -5.967328    -1.489374     6.449227
H    -5.948751    -1.867907     5.541205
H     0.839929     3.025259    -7.122984
O     1.757952     2.695279    -7.176863
H     1.745804     1.946067    -7.800783
H    -4.195828     8.353154     6.711909
O    -4.324046     8.322640     5.758210
H    -4.074148     7.397730     5.515842
H    -2.066672     10.315169    -2.766254
O    -2.969192     10.495811    -3.065991
H    -2.899459     11.126757    -3.781796
H     9.399082    -4.040672     4.065744
O     9.118892    -4.717694     4.689312
H     8.687645    -4.244201     5.411679
H    -0.728247    -6.002736    -5.832329
O    -0.025082    -6.568281    -5.496545
H     0.810587    -6.106896    -5.713692
H     1.813325     8.285107     0.645532
O     1.510735     8.606686    -0.232044
H     2.325650     8.642054    -0.762621
H     3.501221     2.924813    -6.665833
O     4.328433     2.636626    -6.254341
H     4.081817     2.364201    -5.345429
H     3.724040     7.131741    -1.241898
O     3.928961     8.067590    -1.456273
H     4.300179     8.009956    -2.348754
H     4.401799    -0.014571    -7.907543
O     4.777451     0.134155    -7.037913
H     4.594721     1.066463    -6.796842
H     6.023745     1.942155    -0.472656
O     6.590100     2.134825    -1.233813
H     7.414542     1.655640    -1.037948
H     6.684598    -8.424214    -1.580957
O     7.321672    -8.214861    -2.316984
H     7.689008    -9.049627    -2.602549
H    -5.295875    -5.795501    -5.407112
O    -5.912730    -5.124509    -5.724639
H    -5.361516    -4.356605    -5.962096
H     0.675865     7.191146     7.594835
O    -0.225162     7.225088     7.953824
H    -0.777780     7.235435     7.134943
H    -8.895932    -2.840006    -4.114107
O    -9.416975    -2.031217    -3.949814
H    -9.130054    -1.367974    -4.581241
H    -2.410054    -5.986871    -2.137520
O    -3.287577    -5.701133    -2.408740
H    -3.473279    -6.078346    -3.293672
H    -2.980820    -5.905875    -5.405092
O    -3.581257    -6.514789    -4.932569
H    -3.099295    -7.334451    -4.762986
H    -1.388162     3.718100    -6.997002
O    -0.847589     2.963833    -6.722885
H    -1.082488     2.176876    -7.271317
H    -0.197230     0.407440    -8.220485
O    -1.093624     0.643349    -7.938715
H    -1.270182     0.120795    -7.140372
H    -10.427630     4.049220    -2.763209
O    -10.495273     3.270654    -2.195065
H    -9.668346     3.246305    -1.682473
H     4.570067     4.093503     1.715368
O     4.360174     3.173966     1.996299
H     5.075790     2.596261     1.717818
H     6.485243     1.400289    -4.214945
O     6.181155     0.777660    -3.520153
H     6.210610     1.274770    -2.677304
H     9.629010    -2.215721    -0.912054
O     9.907062    -2.002564    -1.811702
H     9.107103    -1.665672    -2.257220
H     9.969640    -3.314807    -3.078236
O     9.704078    -3.968410    -3.752220
H     9.311248    -3.462625    -4.474226
H    -7.697802    -8.574798    -1.662539
O    -6.960130    -7.980471    -1.791975
H    -7.338259    -7.067580    -1.784530
H     4.156616     6.083055    -3.829875
O     4.816673     6.785178    -3.743796
H     5.653239     6.332038    -3.605731
H     0.103958    -8.174184    -5.200997
O     0.128239    -9.156759    -5.067025
H     0.280282    -9.522310    -5.938569
H    -2.330620    -8.672997    -2.704150
O    -2.095197    -8.411037    -3.613873
H    -1.447864    -9.030169    -3.970142
H     2.188367    -10.815363    -3.471885
O     2.142042    -9.860766    -3.450192
H     1.357188    -9.591577    -3.978054
H     6.834579     3.332702    -4.573631
O     6.894345     2.653009    -5.272812
H     6.101632     2.784126    -5.815125
H    -3.582365    -3.700400     7.720288
O    -3.694874    -2.913557     7.188512
H    -3.443098    -3.154387     6.271037
H    -0.631530    -3.369436    -6.721377
O    -0.001884    -2.637439    -6.729735
H    -0.484784    -1.861684    -6.390464
H     0.618705     0.487466     8.749338
O     0.627859    -0.228735     8.110293
H    -0.294478    -0.517605     8.021919
H    -5.838812     7.363956    -4.279955
O    -6.339381     6.743577    -4.841133
H    -6.627417     6.013190    -4.249642
H    -4.285859     9.102576    -3.294379
O    -4.822938     8.307961    -3.184099
H    -4.411224     7.828277    -2.447297
H    -9.714512     5.789904    -4.678693
O    -10.247042     4.985119    -4.513754
H    -11.127784     5.184227    -4.833327
H     2.751361     6.537575     6.124944
O     1.790333     6.637094     6.213215
H     1.447179     5.721209     6.124140
H     4.790134     8.558946     0.070567
O     5.102966     8.561198     0.993236
H     5.514082     7.698949     1.125352
H     4.147455    -7.425420    -4.323146
O     3.390520    -7.711778    -4.866231
H     3.110007    -8.552066    -4.488752
H     0.356840     8.679073     4.236585
O     1.019230     8.028304     3.994997
H     1.263932     7.536461     4.807883
H     5.231078     4.194970    -3.161375
O     6.192442     4.166930    -3.106330
H     6.400702     3.586361    -2.357590
H    -2.597674    -1.519846     7.569744
O    -2.087287    -0.726414     7.788727
H    -2.714311    -0.097898     8.157522
H    -9.032781     7.931472    -4.181997
O    -8.967532     7.345486    -4.937495
H    -8.010257     7.181782    -5.070839
H     3.527008    -8.968096     1.112348
O     2.849405    -8.336167     1.358198
H     3.322821    -7.530000     1.637738
H     3.570675     8.184205     1.811100
O     2.777447     7.623953     1.927157
H     2.336343     7.859543     2.754572
N    -6.735436     6.771100     4.911949
H    -6.409195     6.827146     4.003160
H    -6.175234     7.417403     5.367594
