30

H    -3.510052     6.392980    -0.519339
O    -3.317104     7.050914    -1.242824
H    -3.122612     7.911197    -0.801046
H     0.245222     5.668109    -0.737740
O     0.743436     6.345337    -1.257718
H     0.929448     7.106391    -0.661749
H    -0.368748     6.954980    -2.311720
O    -1.127005     7.375644    -2.795902
H    -1.889915     7.175121    -2.194646
H    -0.596805     4.551655    -4.066030
O    -1.377945     5.090626    -4.304739
H    -1.267436     5.929960    -3.820975
H    -0.419780     8.970483    -1.989735
O    -0.244403     9.800099    -1.507326
H     0.492520     9.553439    -0.914230
H    -1.736496     9.705163    -0.661568
O    -2.647019     9.510502    -0.333126
H    -3.226076     10.113789    -0.824941
H    -1.671987     6.128746    -7.243593
O    -2.061365     5.373413    -6.802738
H    -1.692886     5.346835    -5.870924
H    -3.186737     10.398418    -3.186313
O    -3.957252     10.622169    -2.606227
H    -4.194503     11.526850    -2.825859
H    -5.123140     9.087747    -2.798681
O    -5.512495     8.205506    -2.719521
H    -4.912864     7.729195    -2.122163
N    -1.748460     9.942967    -4.070163
H    -1.047658     10.424708    -3.613665
H    -1.550527     9.017575    -3.841163
