27

H    -4.597842    -5.148062    -1.570778
O    -5.339940    -4.851138    -1.006707
H    -5.055987    -5.147630    -0.115358
H    -5.304999    -5.130163     1.852228
O    -4.628376    -5.749666     1.500355
H    -3.783492    -5.320038     1.760458
H    -5.792039    -3.119015     1.310815
O    -6.298304    -3.648224     1.977662
H    -6.082916    -3.203593     2.825166
H    -9.057217    -1.712382    -2.361477
O    -8.544914    -1.492800    -1.553283
H    -8.673177    -2.202678    -0.889585
H    -7.921703    -3.534233     0.957888
O    -8.628473    -3.512805     0.286820
H    -8.367315    -4.183136    -0.375719
H    -5.689367    -8.205260    -0.418860
O    -4.880618    -8.240782     0.141285
H    -4.830712    -7.374819     0.574035
H    -6.924028    -5.257256    -1.466678
O    -7.876446    -5.408040    -1.693159
H    -7.969456    -4.972458    -2.571698
H    -7.882004    -8.080480    -0.467020
O    -7.239124    -8.204193    -1.185930
H    -7.384595    -7.400635    -1.710504
N    -9.267951    -6.935392     0.417442
H    -9.229230    -6.400960     1.217298
H    -9.131249    -6.290837    -0.293053
