603

H     0.187237     3.030467    -0.643432
O     0.708989     2.364875    -1.141041
H     1.648733     2.493722    -0.870611
H    -0.067005    -1.315165     3.177998
O     0.321826    -0.612432     2.634306
H    -0.157786     0.198803     2.871346
H    -2.411007     2.405048    -0.492878
O    -2.195655     1.934731     0.329849
H    -2.212451     0.986703     0.104849
H    -4.597473     0.468571     2.167770
O    -4.958351    -0.445962     2.189862
H    -4.491688    -0.949463     1.508940
H     0.061273    -0.312949     0.981462
O    -0.139401    -0.074253     0.055633
H     0.198043     0.823083    -0.063859
H    -0.139246    -3.586518     3.802261
O    -0.415570    -2.756286     4.224007
H     0.231649    -2.587704     4.925092
H    -4.840976     2.523618     1.315059
O    -4.202473     2.135410     1.948433
H    -3.357877     2.129290     1.431139
H    -3.270504     3.895022    -2.162182
O    -2.530713     3.299640    -1.934851
H    -2.175391     3.012810    -2.796233
H    -0.124069    -3.808249     0.527316
O     0.216786    -2.990759     0.944467
H    -0.570229    -2.506629     1.261488
H    -2.372552    -1.550503     2.507289
O    -2.183064    -2.013304     1.664134
H    -2.447329    -1.425823     0.937309
H     2.063151    -1.440775    -1.102133
O     2.299421    -1.694733    -0.186240
H     1.512500    -2.124371     0.200341
H    -1.391264     1.817632     1.950883
O    -1.479424     1.418944     2.826640
H    -1.459902     2.129243     3.493286
H     0.198772    -2.702358    -1.545625
O    -0.557114    -2.090801    -1.596920
H    -0.376716    -1.366405    -0.961124
H    -3.441490    -2.933312    -0.352254
O    -2.724479    -3.422240    -0.777465
H    -2.016620    -2.789415    -0.996191
H     2.777252     0.125011     2.952151
O     2.881559    -0.058683     3.913047
H     2.972564     0.833583     4.318765
H    -3.546842     6.374240    -0.487551
O    -3.313657     7.038934    -1.186983
H    -3.169769     7.883216    -0.715802
H     3.898846     0.584705     1.200424
O     2.948942     0.402021     1.319807
H     2.710215    -0.350110     0.740572
H    -5.797063     0.833412    -1.546488
O    -4.886795     1.163171    -1.425889
H    -4.996418     1.989300    -0.910779
H    -1.216996     5.388741     2.255012
O    -1.844070     4.642866     2.141225
H    -1.912093     4.219044     3.002109
H     3.483988     2.764450     0.445614
O     3.232432     2.723681    -0.492650
H     3.564451     1.882121    -0.846288
H     1.481519    -4.693040    -2.235697
O     1.547380    -3.916549    -1.661705
H     2.339871    -3.453725    -2.015130
H    -0.939043    -0.084672    -2.514498
O    -0.308241     0.570273    -2.840303
H    -0.045188     1.150959    -2.103088
H     1.698082    -4.685190    -0.165296
O     1.810059    -5.323830     0.575161
H     1.345768    -6.134830     0.280041
H    -1.241423    -3.264824    -2.850803
O    -1.068884    -3.946401    -3.513680
H    -0.939907    -4.794134    -3.046778
H    -2.761448     3.285517     4.751985
O    -1.779880     3.297261     4.717456
H    -1.484771     2.889001     5.549543
H     0.965053     5.027565     4.110814
O     0.019099     5.259077     4.168160
H    -0.450483     4.454086     4.425950
H    -1.732189    -4.654520    -0.342945
O    -0.964987    -5.195242    -0.063154
H    -1.309232    -5.882527     0.516619
H    -3.943255     5.829359    -2.542726
O    -4.296029     4.995753    -2.871380
H    -4.144965     4.961486    -3.840286
H    -2.424626    -3.698564     1.969554
O    -2.439156    -4.604626     2.340977
H    -1.498751    -4.840212     2.479575
H    -4.710501    -2.983467    -2.854127
O    -3.859757    -3.214192    -3.265136
H    -3.525477    -4.007979    -2.802387
H     0.350339     1.366351     4.645328
O     0.853942     2.128238     4.311106
H     0.904258     2.785702     5.019054
H    -4.661454    -5.176594    -1.530346
O    -5.361789    -4.824969    -0.953910
H    -5.144794    -5.179453    -0.070510
H     2.311820    -6.473389    -4.031759
O     1.978109    -6.146506    -3.176255
H     2.415855    -6.720987    -2.515770
H     0.447616    -3.373378    -3.983791
O     1.247839    -3.004392    -4.410047
H     0.923833    -2.631966    -5.256411
H     1.971265    -1.758174     3.000091
O     2.128023    -2.688081     2.779776
H     1.439038    -2.901938     2.115953
H    -3.033293    -1.810372    -3.170385
O    -2.612174    -0.923115    -3.106592
H    -3.270499    -0.278359    -3.421581
H    -3.200005     4.966411     1.132327
O    -3.984432     5.340437     0.682577
H    -4.397123     5.895519     1.390676
H     0.876536     2.247454     2.621271
O     0.973747     2.246070     1.649592
H     1.700205     1.623430     1.480857
H     0.171410     5.656330    -0.719120
O     0.689397     6.320259    -1.229022
H     0.833241     7.118985    -0.672226
H     0.336484     7.029269     2.632266
O    -0.029962     6.650206     1.816140
H     0.633877     5.981237     1.549563
H    -2.475432     0.201707     3.381990
O    -2.690227    -0.615372     3.883731
H    -1.928928    -0.654130     4.503516
H    -0.878173     0.536844     6.060177
O    -0.602551     0.023932     5.282357
H     0.110880    -0.581212     5.565227
H     0.718908    -4.999492     1.997550
O     0.180997    -5.110910     2.804557
H     0.327116    -6.031950     3.074246
H    -2.112835    -8.094210     0.472015
O    -1.786928    -7.607851     1.256668
H    -2.571230    -7.297685     1.716970
H    -0.406370     6.865586    -2.281677
O    -1.155597     7.285879    -2.776737
H    -1.942895     7.156567    -2.210317
H    -1.125632     4.303852     0.616533
O    -0.756818     4.369256    -0.280830
H    -1.464696     4.125582    -0.911184
H    -4.321705     2.768703     3.548131
O    -4.349647     2.898931     4.520403
H    -4.449826     1.987603     4.883727
H     2.040063    -3.589649     4.258387
O     1.981776    -4.063938     5.110851
H     2.489304    -3.526941     5.740697
H     4.688571    -3.192083     0.842683
O     4.524096    -3.114468    -0.123029
H     3.663868    -2.638677    -0.201735
H    -2.734597    -0.751979    -1.312195
O    -3.057157    -0.482616    -0.435854
H    -3.861288     0.039488    -0.637092
H    -1.643210    -0.757082    -4.596312
O    -1.140137    -0.538299    -5.401985
H    -0.429763     0.058210    -5.118281
H     1.775266    -1.708425    -3.358243
O     1.869520    -0.962088    -2.734835
H     1.090232    -0.386553    -2.860901
H     3.671077    -3.123984     2.558527
O     4.630181    -3.351561     2.480859
H     4.686498    -4.311896     2.605678
H     3.440967    -6.124854     3.126733
O     3.792646    -5.921712     2.225392
H     3.052247    -5.576271     1.686320
H    -3.371806     1.611823    -4.130459
O    -4.216075     1.140969    -3.937481
H    -4.429120     1.282932    -2.979266
H    -5.096082     4.137708     0.122585
O    -5.535621     3.272102     0.024021
H    -6.465826     3.389154    -0.258993
H     6.722215    -1.172864    -1.364266
O     5.952093    -1.025032    -0.809022
H     5.535089    -1.893732    -0.611064
H     4.579976    -3.160353    -2.466641
O     3.710264    -2.989310    -2.878823
H     3.711050    -3.607048    -3.635821
H     4.455291    -2.300134     5.627734
O     4.117267    -2.767046     6.422119
H     4.451947    -3.671855     6.336943
H    -0.750352     6.324380     5.119744
O    -1.347777     6.899011     5.659118
H    -1.360208     7.777349     5.220435
H     4.684632    -0.129550    -1.457349
O     3.915454     0.412332    -1.716043
H     3.222321    -0.188739    -2.043902
H    -0.774578     4.527095    -3.996181
O    -1.558696     5.069980    -4.199680
H    -1.405690     5.936090    -3.776830
H     0.635748     3.207284    -2.625580
O     0.638080     3.585864    -3.533468
H     0.684328     2.823450    -4.120441
H    -5.377021    -5.205342     1.836997
O    -4.681367    -5.799326     1.477043
H    -3.840319    -5.383244     1.745407
H     7.858347    -1.674598    -4.041723
O     7.604211    -1.363268    -3.140378
H     7.115294    -0.519939    -3.293139
H     3.677293    -5.059986    -5.285986
O     4.441586    -4.686427    -4.807919
H     4.829270    -5.397881    -4.264945
H    -3.691257    -0.031571     4.978347
O    -4.272332     0.445844     5.622635
H    -4.944082    -0.218537     5.888927
H     3.462695    -5.939060    -0.515726
O     4.333567    -5.690203    -0.837440
H     4.409200    -4.728071    -0.692285
H     4.974850    -0.324087    -4.153311
O     4.438822    -1.035339    -4.542340
H     4.116705    -1.620671    -3.824196
H    -1.200281     1.574800    -3.898666
O    -1.852871     2.195813    -4.280333
H    -1.499430     2.528762    -5.127845
H     4.875518    -6.313800    -2.318590
O     5.205256    -6.636526    -3.186289
H     6.024571    -7.116866    -3.003928
H     8.726675    -5.077477    -2.936504
O     8.038394    -5.497051    -2.375895
H     8.073742    -6.454163    -2.479799
H     2.325377     4.719829     0.479810
O     1.748764     4.700218     1.252900
H     1.394188     3.778665     1.331268
H    -4.402138    -2.649177     4.273660
O    -5.298057    -2.317498     4.071874
H    -5.169866    -1.530121     3.503981
H    -5.843703    -3.207901     1.367463
O    -6.302774    -3.768649     2.034288
H    -6.113067    -3.333531     2.885792
H     1.703613     3.455929     6.891229
O     1.077714     3.972582     6.361805
H     0.296525     4.121789     6.936408
H     5.011649    -2.171457     3.619742
O     5.034343    -1.454043     4.284765
H     4.220861    -0.898850     4.132854
H     2.411805    -5.584791     4.847182
O     2.791917    -6.467663     4.583987
H     2.046764    -7.049735     4.412153
H     2.225249    -4.503371    -6.778850
O     2.060667    -4.993358    -5.963279
H     1.797714    -4.303786    -5.305417
H     6.435010    -4.096184    -0.509328
O     7.191111    -4.498671    -0.050308
H     7.695643    -4.919573    -0.774082
H    -1.708107     4.472849     7.743973
O    -0.808882     4.570839     8.127509
H    -0.627864     5.529854     8.152853
H    -5.158977     5.694291    -5.535126
O    -4.550374     4.931847    -5.558362
H    -3.795854     5.147799    -6.127481
H     3.239692    -2.510377    -8.426364
O     3.156181    -3.044454    -7.625572
H     4.034613    -3.019917    -7.200469
H    -0.690713     8.827940    -2.229962
O    -0.567201     9.655493    -1.709606
H     0.198611     9.481476    -1.137369
H     2.082626    -0.921235     5.230636
O     1.513965    -1.449494     5.819824
H     1.610328    -1.105143     6.717062
H     5.175113    -2.009678    -5.690053
O     5.520184    -2.774467    -6.214982
H     5.249684    -3.565764    -5.697638
H     5.714739    -5.217900     4.681098
O     5.196393    -5.135048     5.510405
H     4.475220    -5.767756     5.427104
H    -3.893840     1.111780     7.099823
O    -3.783152     1.626883     7.932291
H    -4.673792     2.018292     8.123279
H    -1.875947     9.610967    -0.690824
O    -2.734386     9.483188    -0.212606
H    -3.347618     10.111114    -0.598196
H    -5.976152     4.684084    -2.875234
O    -6.886578     4.563861    -3.214410
H    -6.797945     3.862899    -3.893490
H     0.090802    -7.064681    -1.126268
O     0.559130    -7.501514    -0.381704
H    -0.116874    -7.698136     0.270002
H    -7.659592     3.780576    -1.904932
O    -7.917699     3.193981    -1.163200
H    -7.774900     2.284895    -1.503125
H     3.996490    -0.901168     6.997019
O     4.004298     0.063059     6.989851
H     4.814247     0.354308     6.554778
H     2.236591     5.798917    -1.150240
O     3.173074     5.507878    -1.040565
H     3.347050     4.969033    -1.835279
H     6.553226    -5.924519     0.662235
O     6.188136    -6.662314     1.196257
H     5.284232    -6.386899     1.427802
H    -3.852704     4.707466     7.834388
O    -3.290957     4.249491     7.168230
H    -3.472763     3.303316     7.284515
H     5.765588    -7.940584     0.128102
O     5.476132    -8.627004    -0.509452
H     4.644458    -8.302272    -0.899120
H    -0.537145     2.023119     7.729856
O    -1.174288     1.961636     6.998057
H    -2.040686     1.816486     7.397016
H    -6.412491    -0.216309     1.077494
O    -6.685590    -0.252250     0.143355
H    -7.569435    -0.628158     0.092610
H    -5.380592    -3.071042    -0.541253
O    -5.122831    -2.368655     0.081653
H    -5.697985    -1.597399    -0.095745
H     4.302685     5.580990     0.340136
O     4.640512     5.681124     1.243941
H     3.947010     6.189020     1.700273
H    -9.060149    -1.756399    -2.186247
O    -8.508317    -1.554300    -1.403444
H    -8.631011    -2.291503    -0.765050
H    -5.562619     3.470303    -5.467676
O    -6.077487     2.759386    -5.050466
H    -5.408305     2.173404    -4.641237
H     3.147838    -0.876811    -5.641056
O     2.290154    -0.996860    -6.103657
H     2.374469    -1.845243    -6.578423
H     8.080737    -1.330661    -6.037989
O     8.092303    -2.195364    -5.582984
H     7.235538    -2.596203    -5.830252
H     7.582441     1.009639    -6.312484
O     7.392991     0.161816    -6.726462
H     6.411566     0.110306    -6.758289
H    -7.861256    -3.704387     0.989613
O    -8.540778    -3.598200     0.305864
H    -8.444538    -4.358602    -0.294562
H    -2.422756     8.729155     1.348178
O    -2.271095     8.137963     2.099058
H    -1.499622     7.587290     1.873740
H    -4.433043     6.423848     3.561858
O    -4.622581     6.848362     2.708710
H    -3.862785     7.436144     2.555724
H     3.371356     3.455029    -3.556905
O     3.216816     4.423931    -3.461142
H     2.251375     4.487022    -3.564593
H    -6.138083    -1.610179    -3.388006
O    -6.216270    -2.190779    -2.604814
H    -6.998451    -1.886203    -2.091456
H     6.478512     1.048461     4.742230
O     6.087009     1.585740     5.447753
H     6.272479     2.505060     5.157314
H     1.324528     1.731569    -5.796145
O     1.134163     1.134474    -5.041883
H     1.497546     0.272209    -5.314511
H    -2.458928     2.940038     10.528290
O    -2.249344     2.033650     10.249504
H    -2.853249     1.836938     9.520848
H     7.632911    -0.494789     3.078392
O     6.882919     0.079672     3.251475
H     6.193108    -0.522364     3.632925
H    -5.659844    -8.062593    -0.659227
O    -4.921789    -8.131244    -0.016471
H    -4.924728    -7.314914     0.507278
H    -5.206967    -0.119655    -4.662993
O    -5.823778    -0.831915    -4.901825
H    -6.663780    -0.391658    -5.094821
H     1.847629    -0.185419    -7.494033
O     1.641627     0.287641    -8.336257
H     2.215814    -0.115912    -8.992586
H     4.823591    -1.373265    -9.298345
O     3.896942    -1.144963    -9.576150
H     3.872531    -1.262062    -10.525181
H     7.577222    -2.569577     4.191612
O     7.719962    -2.603730     3.231431
H     7.226571    -3.394874     2.960418
H     6.732083    -5.892320     2.674536
O     6.796192    -5.218044     3.376346
H     7.673962    -5.302795     3.790202
H    -1.827404     8.937659     3.548547
O    -1.577157     9.241534     4.446443
H    -2.424153     9.373354     4.905002
H    -7.424817     1.564247    -5.184722
O    -7.997174     0.818693    -4.938358
H    -8.899240     1.215882    -4.858423
H     6.880983    -1.061859    -8.407253
O     6.298888    -1.783304    -8.669509
H     6.075387    -2.234879    -7.837268
H    -1.725369     6.248477    -6.975114
O    -2.121755     5.422773    -6.700708
H    -1.868173     5.290279    -5.738652
H     0.026026     3.294074     9.059083
O     0.225263     2.374412     9.312250
H    -0.570846     2.107678     9.820484
H     6.739076    -2.768169    -2.710005
O     6.211171    -3.513682    -2.367900
H     6.679643    -4.323498    -2.617717
H    -4.104465    -3.072575    -4.900211
O    -4.262723    -2.958305    -5.864255
H    -4.811912    -2.166335    -5.916518
H     2.005381     2.169867     8.490228
O     2.665725     2.285287     7.797357
H     3.089234     1.416112     7.678153
H    -6.915767    -5.210763    -1.342670
O    -7.831621    -5.482152    -1.585521
H    -7.969937    -5.077802    -2.466742
H    -3.803934     5.244829     5.767183
O    -3.788670     6.004739     5.163066
H    -2.856432     6.309258     5.246192
H    -7.902123     0.078130    -1.896773
O    -7.418335     0.805032    -2.312370
H    -7.649677     0.792670    -3.264703
H     5.830050     0.135598     0.416135
O     5.610158     0.856001     1.039066
H     6.124193     0.660022     1.849445
H    -6.186489     3.401681     7.416974
O    -6.124085     2.845247     8.220753
H    -6.764167     2.119510     8.060097
H     2.276285    -8.070973    -0.836026
O     2.950225    -8.056527    -1.535242
H     2.723434    -8.769943    -2.148420
H    -2.776028    -3.957116    -6.160941
O    -2.020051    -4.522155    -5.933870
H    -1.740567    -4.232116    -5.037157
H    -5.462799     3.874055     5.237615
O    -6.205240     4.246340     5.788544
H    -6.156161     5.200315     5.680310
H    -1.032068    -7.112488    -3.139836
O    -0.557989    -6.442711    -2.613111
H     0.347615    -6.371644    -2.997920
H     4.455625     2.012941     5.142491
O     3.513374     2.252220     5.027231
H     3.132815     2.264944     5.910764
H     4.122344     4.651072     6.320430
O     4.198158     5.382976     5.703778
H     3.628039     5.142266     4.934788
H     2.767925     3.613752     3.946961
O     2.588499     4.553875     3.782804
H     2.464679     4.653279     2.817052
H     9.379394     0.223580    -1.082747
O     8.575458     0.384930    -0.585298
H     8.402743    -0.434908    -0.092705
H    -2.073796     5.300284     10.697787
O    -2.794316     4.670891     10.931317
H    -3.006021     4.844655     11.848724
H     7.969548    -3.000815     0.317017
O     8.390777    -2.153992     0.571586
H     8.329180    -2.150713     1.534193
H     5.372296     3.665069     3.537421
O     6.031222     3.930939     4.200839
H     5.619714     4.647509     4.705511
H    -4.190919     4.989238     9.843536
O    -4.824521     5.143501     9.122540
H    -5.440183     4.398524     9.114373
H    -7.030754    -3.483796    -3.428942
O    -7.652630    -4.094908    -3.876485
H    -7.133961    -4.535530    -4.581273
H     0.056263     6.110043     10.811765
O    -0.809459     6.440980     10.567837
H    -0.696809     6.873488     9.702170
H     2.559778     1.504116    -4.084271
O     3.438689     1.857919    -3.849067
H     3.763199     1.342002    -3.080836
H    -7.183709    -0.085641     7.151293
O    -7.640946     0.758057     7.281347
H    -7.766483     1.103079     6.376687
H    -2.742754    -9.877074    -0.802701
O    -2.681569    -8.935232    -0.962108
H    -3.586755    -8.570048    -0.716004
H    -10.104503     3.069592    -4.815725
O    -10.219098     2.151260    -4.536951
H    -10.431220     2.231418    -3.586390
H    -2.050505    -3.036839     4.648707
O    -2.922825    -3.480071     4.723510
H    -2.922867    -4.094446     3.964944
H    -0.165433    -7.987964     2.504430
O     0.663068    -7.777559     2.948458
H     1.378649    -8.071561     2.357501
H     6.728547    -2.378228     6.388921
O     7.177078    -3.086604     5.922356
H     6.547896    -3.822223     5.885541
H    -5.175612    -2.049567     6.961579
O    -5.882178    -1.554366     6.508427
H    -5.885541    -1.945503     5.605838
H     0.790839     3.043325    -7.083418
O     1.708748     2.714265    -7.144482
H     1.693126     1.967268    -7.770944
H    -3.940940     8.743194     6.734457
O    -3.953112     8.738275     5.777151
H    -4.071503     7.808740     5.514050
H    -2.094987     10.314421    -2.681971
O    -2.998507     10.495295    -2.978636
H    -2.931343     11.130012    -3.691321
H     9.425082    -4.056220     4.025846
O     9.149588    -4.735693     4.648846
H     8.722257    -4.265142     5.375450
H    -0.762311    -5.990362    -5.816131
O    -0.056573    -6.556710    -5.487161
H     0.777338    -6.093711    -5.707609
H     1.808635     8.275702     0.699027
O     1.500405     8.598612    -0.176487
H     2.312432     8.638144    -0.710975
H     3.455067     2.943285    -6.643305
O     4.285025     2.653945    -6.238207
H     4.044349     2.378277    -5.328667
H     3.708942     7.130657    -1.205497
O     3.912185     8.067083    -1.418537
H     4.277661     8.012639    -2.313519
H     4.349996     0.009268    -7.901378
O     4.731178     0.154966    -7.033652
H     4.549160     1.086209    -6.787819
H     6.016834     1.940324    -0.469539
O     6.578383     2.135735    -1.233553
H     7.404403     1.656684    -1.044239
H     6.678889    -8.421485    -1.619929
O     7.311323    -8.209048    -2.359090
H     7.677247    -9.042557    -2.650076
H    -5.327429    -5.788214    -5.361765
O    -5.946647    -5.116647    -5.673441
H    -5.397396    -4.347379    -5.911065
H     0.697182     7.161979     7.638859
O    -0.203026     7.188587     8.001987
H    -0.761971     7.203317     7.187194
H    -8.921357    -2.840455    -4.035481
O    -9.442286    -2.032556    -3.866178
H    -9.158729    -1.367236    -4.496913
H    -2.420997    -5.989472    -2.110867
O    -3.300202    -5.703220    -2.375967
H    -3.491233    -6.077593    -3.260890
H    -3.012120    -5.896853    -5.374734
O    -3.609266    -6.508106    -4.901093
H    -3.125507    -7.327842    -4.737086
H    -1.436914     3.734080    -6.940879
O    -0.894085     2.979099    -6.673230
H    -1.132049     2.194057    -7.223007
H    -0.251299     0.428700    -8.184023
O    -1.146202     0.662679    -7.895981
H    -1.317160     0.137357    -7.098218
H    -10.449668     4.042441    -2.652409
O    -10.514737     3.266729    -2.079892
H    -9.679700     3.238045    -1.580541
H     4.574053     4.082678     1.736205
O     4.367820     3.161337     2.014681
H     5.082604     2.586191     1.729032
H     6.455516     1.412172    -4.216563
O     6.156409     0.786666    -3.522189
H     6.190538     1.280796    -2.677733
H     9.622566    -2.213190    -0.946516
O     9.894867    -1.996726    -1.847137
H     9.091918    -1.658703    -2.286412
H     9.950509    -3.304132    -3.118808
O     9.681448    -3.955476    -3.793606
H     9.283563    -3.447364    -4.511205
H    -7.703624    -8.583212    -1.611798
O    -6.967163    -7.988279    -1.745308
H    -7.345577    -7.075492    -1.731796
H     4.125848     6.091399    -3.800145
O     4.786190     6.793582    -3.716922
H     5.623721     6.340643    -3.584202
H     0.075510    -8.163483    -5.198074
O     0.101564    -9.146548    -5.068006
H     0.248421    -9.508610    -5.941889
H    -2.343296    -8.673166    -2.688049
O    -2.113562    -8.407914    -3.598321
H    -1.467936    -9.025318    -3.960579
H     2.172569    -10.809368    -3.491677
O     2.125953    -9.854874    -3.466454
H     1.337557    -9.584282    -3.988307
H     6.801094     3.345921    -4.570398
O     6.857104     2.668932    -5.272567
H     6.060855     2.801462    -5.809328
H    -3.532333    -3.745393     7.761008
O    -3.638929    -2.952170     7.237623
H    -3.401652    -3.188654     6.315223
H    -0.673224    -3.353799    -6.696055
O    -0.044203    -2.621276    -6.705893
H    -0.525483    -1.847164    -6.360573
H     0.670718     0.446705     8.781759
O     0.676032    -0.265577     8.138498
H    -0.246151    -0.556214     8.054877
H    -5.873038     7.366260    -4.182980
O    -6.377958     6.747776    -4.742585
H    -6.660626     6.015087    -4.151589
H    -4.315537     9.101990    -3.200179
O    -4.850531     8.305776    -3.090882
H    -4.436153     7.824970    -2.356175
H    -9.750328     5.790798    -4.561421
O    -10.282147     4.985641    -4.395196
H    -11.163406     5.184162    -4.713694
H     2.777817     6.509408     6.168309
O     1.817957     6.604576     6.270530
H     1.475676     5.690580     6.168498
H     4.782932     8.553110     0.105455
O     5.104202     8.553068     1.025062
H     5.513301     7.689293     1.152797
H     4.123918    -7.414750    -4.342634
O     3.364020    -7.699817    -4.882248
H     3.086300    -8.541572    -4.505972
H     0.376675     8.653945     4.277093
O     1.052818     8.009541     4.044343
H     1.284427     7.515680     4.857080
H     5.205919     4.202189    -3.144983
O     6.167642     4.174011    -3.096441
H     6.380875     3.591430    -2.350682
H    -2.547056    -1.560557     7.612147
O    -2.041544    -0.762902     7.829829
H    -2.670228    -0.145521     8.212409
H    -9.066123     7.931924    -4.063960
O    -9.006380     7.346923    -4.820665
H    -8.049761     7.184417    -4.961206
H     3.538982    -8.977704     1.090557
O     2.862332    -8.347428     1.343166
H     3.336652    -7.541792     1.622673
H     3.572333     8.173341     1.855157
O     2.782522     7.609332     1.970420
H     2.340845     7.842722     2.799562
N    -7.657415     2.087232     4.772415
H    -8.433541     2.196400     4.218265
H    -7.361474     2.991823     4.992845
