30
Coordinates from ORCA-job grain_mol_opt.QMRegion
  H   3.48501441911370      2.66514037304279      0.37537153750793
  O   3.28793963199865      2.68828780377737     -0.57751654576853
  H   3.53888809613578      1.80609541063301     -0.91692007067803
  H   4.23146772980940      5.66367010973065      0.30175772395873
  O   4.55505007173730      5.77749844662611      1.21438483742901
  H   3.83813355840362      6.30416618946658      1.62103671428766
  H   6.51704563032985      1.05125256380714      4.83473930912825
  O   6.10853547581616      1.57119035808520      5.54340372206170
  H   6.25154868330775      2.49631707823697      5.24899906182421
  H   7.53501219586987     -0.65514748802891      3.09548354322200
  O   6.86148747153125      0.01444412451027      3.27437826114067
  H   6.14387417576964     -0.54758406542017      3.67823569146472
  H   5.75942087247950      0.03635124818799      0.35082531152696
  O   5.54338212503892      0.75014178425607      0.98320120580639
  H   6.02070647338160      0.50540425869276      1.80203545100685
  H   9.44048319585751      0.12252235617288     -1.05047504163420
  O   8.66324095137994      0.32883760487677     -0.51804801992439
  H   8.46746154215907     -0.51476923181564     -0.07033076640892
  H   5.32378065624333      3.70675384208793      3.64095466495115
  O   6.04208290060340      3.98574282895631      4.25352281427638
  H   5.63690391897313      4.70710445520862      4.76872430356435
  H   6.06355309721880      2.04499651267209     -0.52352619020366
  O   6.63615591979415      2.14141420272109     -1.29439818414648
  H   7.42353332735837      1.61860901626417     -1.07165726483280
  H   4.46531066941278      4.18010595483290      1.77141997227007
  O   4.41823458232212      3.23048905548925      2.04018420510357
  H   5.27659152153104      2.88116817704536      1.75499774992811
  O   7.27146512914001      3.31430304527377      1.66739852864554
  H   7.27717392843203      3.74065345701332      2.53642527490099
  H   7.86394839407791      2.56114801091104      1.74626231319774
