603

H     0.203045     3.024558    -0.668316
O     0.726190     2.355863    -1.160780
H     1.664678     2.483950    -0.885462
H    -0.085149    -1.315328     3.154798
O     0.313034    -0.614388     2.615715
H    -0.166821     0.198968     2.845125
H    -2.396733     2.405836    -0.529931
O    -2.188115     1.933801     0.293755
H    -2.204987     0.986306     0.067184
H    -4.667346     0.541519     2.181506
O    -4.984961    -0.391702     2.193609
H    -4.480074    -0.868997     1.527006
H     0.062738    -0.315932     0.959253
O    -0.134142    -0.078983     0.032396
H     0.205527     0.817661    -0.087604
H    -0.191989    -3.581787     3.766581
O    -0.459651    -2.750313     4.192921
H     0.184872    -2.605222     4.900833
H    -4.888140     2.525878     1.331719
O    -4.249756     2.115292     1.947003
H    -3.406467     2.097660     1.435052
H    -3.243470     3.895114    -2.206475
O    -2.506961     3.297065    -1.974744
H    -2.146889     3.010186    -2.834053
H    -0.129967    -3.812391     0.507021
O     0.209495    -2.995002     0.925633
H    -0.578361    -2.508382     1.236114
H    -2.385500    -1.545960     2.470491
O    -2.193448    -2.011241     1.629883
H    -2.450943    -1.424022     0.900103
H     2.073145    -1.451066    -1.111587
O     2.302832    -1.705488    -0.194015
H     1.512059    -2.132239     0.187443
H    -1.394684     1.815782     1.918415
O    -1.486586     1.417872     2.794428
H    -1.474463     2.130527     3.459146
H     0.208213    -2.709157    -1.564803
O    -0.546944    -2.097022    -1.619891
H    -0.367998    -1.371185    -0.985265
H    -3.439848    -2.929725    -0.392804
O    -2.721681    -3.422004    -0.811823
H    -2.011000    -2.791540    -1.028878
H     2.772127     0.116982     2.944982
O     2.870610    -0.064248     3.907238
H     2.961907     0.828426     4.311872
H    -3.525485     6.376194    -0.536099
O    -3.285464     7.039164    -1.235322
H    -3.143775     7.883775    -0.764066
H     3.898498     0.572846     1.200737
O     2.947876     0.391184     1.314295
H     2.711581    -0.360571     0.733766
H    -5.779440     0.841285    -1.606643
O    -4.868974     1.167687    -1.478171
H    -4.980341     1.995804    -0.966153
H    -1.213293     5.389092     2.219641
O    -1.838613     4.642303     2.101509
H    -1.918138     4.223773     2.963841
H     3.493750     2.753567     0.440646
O     3.246490     2.710755    -0.498939
H     3.579481     1.868391    -0.849302
H     1.490349    -4.703297    -2.245089
O     1.554712    -3.926853    -1.670832
H     2.350155    -3.465856    -2.020215
H    -0.919004    -0.089083    -2.542750
O    -0.283426     0.562838    -2.865148
H    -0.023999     1.144688    -2.127439
H     1.694953    -4.694165    -0.173392
O     1.800329    -5.331968     0.568869
H     1.336577    -6.142468     0.271411
H    -1.225577    -3.269461    -2.877918
O    -1.051097    -3.952411    -3.538854
H    -0.926366    -4.799857    -3.070377
H    -2.787776     3.298383     4.710935
O    -1.806433     3.294060     4.679025
H    -1.515004     2.891502     5.515133
H     0.955875     5.025663     4.087510
O     0.009059     5.256924     4.137126
H    -0.461472     4.453648     4.396640
H    -1.734584    -4.656299    -0.371534
O    -0.970192    -5.197642    -0.085676
H    -1.319153    -5.885364     0.490764
H    -3.910953     5.830300    -2.592302
O    -4.261621     4.996692    -2.923451
H    -4.105162     4.962729    -3.891421
H    -2.439080    -3.696123     1.935020
O    -2.460069    -4.600216     2.310830
H    -1.520764    -4.841845     2.450088
H    -4.694355    -2.980761    -2.902314
O    -3.841449    -3.213861    -3.307339
H    -3.511925    -4.008226    -2.842333
H     0.324258     1.366280     4.624025
O     0.840476     2.120404     4.294947
H     0.883229     2.784624     4.998452
H    -4.657910    -5.172385    -1.576439
O    -5.360339    -4.818865    -1.003510
H    -5.148997    -5.174348    -0.119331
H     2.327128    -6.486905    -4.034600
O     1.989061    -6.158767    -3.181245
H     2.421855    -6.733690    -2.517936
H     0.469596    -3.383037    -4.000776
O     1.273391    -3.016344    -4.422098
H     0.955653    -2.643719    -5.270809
H     1.956412    -1.767325     2.986727
O     2.107401    -2.699262     2.771490
H     1.425092    -2.908171     2.099093
H    -3.012641    -1.810997    -3.209352
O    -2.589906    -0.924907    -3.142690
H    -3.244363    -0.278473    -3.462952
H    -3.190524     4.970025     1.086161
O    -3.971481     5.344080     0.630859
H    -4.387300     5.901696     1.336839
H     0.873319     2.243426     2.602565
O     0.973836     2.239018     1.631404
H     1.701358     1.616544     1.467099
H     0.194059     5.650505    -0.745817
O     0.716555     6.312435    -1.253619
H     0.858598     7.111676    -0.696932
H     0.341633     7.026478     2.604538
O    -0.019643     6.647285     1.786143
H     0.644350     5.976573     1.524992
H    -2.488840     0.207701     3.342448
O    -2.714498    -0.606961     3.844827
H    -1.955246    -0.650805     4.467534
H    -0.964959     0.604320     5.997508
O    -0.679167     0.084306     5.228341
H     0.019392    -0.535308     5.518957
H     0.699284    -5.006149     1.980825
O     0.150771    -5.113820     2.781158
H     0.298832    -6.031237     3.061539
H    -2.127374    -8.094259     0.443889
O    -1.805813    -7.606967     1.229822
H    -2.592577    -7.296247     1.685412
H    -0.372814     6.859184    -2.312850
O    -1.118324     7.279899    -2.812936
H    -1.909128     7.153724    -2.250466
H    -1.113069     4.302993     0.582828
O    -0.738974     4.364267    -0.312733
H    -1.444910     4.123617    -0.946303
H    -4.414975     2.740089     3.509724
O    -4.414697     2.909106     4.474607
H    -4.499840     2.025753     4.882534
H     1.910788    -3.719169     4.150998
O     1.713715    -4.169648     5.000309
H     2.290414    -3.709749     5.636304
H     4.683328    -3.202925     0.856487
O     4.523588    -3.130524    -0.109890
H     3.665454    -2.652222    -0.197160
H    -2.722999    -0.751991    -1.350039
O    -3.051563    -0.482806    -0.475765
H    -3.851388     0.043808    -0.683380
H    -1.611582    -0.762393    -4.627680
O    -1.103019    -0.546346    -5.430528
H    -0.393386     0.049602    -5.143671
H     1.797310    -1.720451    -3.368773
O     1.889195    -0.974466    -2.744581
H     1.112489    -0.396527    -2.876340
H     3.658050    -3.127964     2.565808
O     4.617768    -3.354895     2.507394
H     4.667849    -4.318169     2.614042
H     3.413887    -6.133666     3.130902
O     3.772675    -5.929933     2.232079
H     3.035929    -5.586074     1.687044
H    -3.337839     1.610347    -4.174566
O    -4.183354     1.140055    -3.985602
H    -4.402317     1.285124    -3.029201
H    -5.081763     4.144051     0.069550
O    -5.520810     3.278326    -0.034850
H    -6.450617     3.398413    -0.318316
H     6.733548    -1.193705    -1.345630
O     5.960421    -1.044312    -0.794868
H     5.541053    -1.911911    -0.598393
H     4.593961    -3.177988    -2.458847
O     3.726576    -3.005807    -2.875396
H     3.730508    -3.623523    -3.632474
H     4.127179    -2.480239     5.851143
O     3.824414    -3.144662     6.498342
H     4.348742    -3.939893     6.271228
H    -0.759523     6.326790     5.086391
O    -1.356963     6.901982     5.624627
H    -1.368954     7.779671     5.184408
H     4.698892    -0.146614    -1.451998
O     3.932345     0.396502    -1.715426
H     3.239949    -0.203091    -2.047429
H    -0.734900     4.520588    -4.027403
O    -1.516957     5.064228    -4.236222
H    -1.365648     5.930477    -3.812687
H     0.664166     3.198331    -2.647186
O     0.673085     3.575742    -3.555386
H     0.720795     2.812784    -4.141486
H    -5.392886    -5.198282     1.787845
O    -4.696168    -5.793165     1.433036
H    -3.855722    -5.378052     1.705502
H     7.884382    -1.700870    -4.015586
O     7.625132    -1.388285    -3.116070
H     7.139405    -0.543760    -3.272767
H     3.703427    -5.077887    -5.281930
O     4.465382    -4.705589    -4.799153
H     4.848484    -5.417579    -4.253704
H    -3.795718     0.009507     4.934246
O    -4.394212     0.472768     5.569669
H    -5.056666    -0.184261     5.858807
H     3.458225    -5.952292    -0.513095
O     4.332168    -5.705561    -0.827978
H     4.408823    -4.743563    -0.682944
H     5.004740    -0.343791    -4.145914
O     4.469528    -1.054539    -4.537097
H     4.141808    -1.638035    -3.820214
H    -1.167261     1.569127    -3.930267
O    -1.816763     2.190507    -4.316223
H    -1.457762     2.522707    -5.161717
H     4.881649    -6.331570    -2.306015
O     5.215381    -6.656016    -3.171443
H     6.032764    -7.137779    -2.984184
H     8.738653    -5.103903    -2.902059
O     8.046167    -5.521740    -2.345171
H     8.080278    -6.478955    -2.448390
H     2.338972     4.710018     0.464771
O     1.756890     4.692428     1.233746
H     1.400023     3.772165     1.311777
H    -4.427605    -2.642360     4.228982
O    -5.320823    -2.300540     4.026409
H    -5.181909    -1.519607     3.451091
H    -5.853158    -3.199246     1.312798
O    -6.317355    -3.756430     1.980043
H    -6.130200    -3.321665     2.831193
H     1.691319     3.496150     6.883097
O     1.043187     3.965688     6.328767
H     0.267147     4.126178     6.906173
H     4.962549    -2.218821     3.669200
O     4.970044    -1.528417     4.369390
H     4.184691    -0.953348     4.178815
H     2.345574    -5.597477     4.834621
O     2.756737    -6.474415     4.584518
H     2.023252    -7.067550     4.401143
H     2.261638    -4.519675    -6.783879
O     2.090988    -5.008496    -5.968824
H     1.825687    -4.317606    -5.313327
H     6.434968    -4.115863    -0.489977
O     7.186856    -4.520246    -0.025690
H     7.695170    -4.942447    -0.746124
H    -1.735253     4.476390     7.712000
O    -0.837608     4.569694     8.101093
H    -0.652974     5.528366     8.125316
H    -5.108353     5.695180    -5.592354
O    -4.501234     4.931279    -5.612330
H    -3.743041     5.145577    -6.177097
H     3.289954    -2.530684    -8.427099
O     3.200686    -3.063709    -7.626192
H     4.076722    -3.040491    -7.196120
H    -0.652538     8.822266    -2.265263
O    -0.529824     9.650255    -1.745633
H     0.231503     9.474902    -1.167874
H     1.993753    -0.833362     5.085100
O     1.468156    -1.354890     5.728872
H     1.621715    -0.946540     6.589367
H     5.210412    -2.031328    -5.679857
O     5.556878    -2.797488    -6.201824
H     5.281545    -3.587611    -5.685365
H     5.685153    -5.228689     4.694017
O     5.153104    -5.162803     5.517319
H     4.438019    -5.800937     5.417686
H    -3.985357     1.133351     7.010658
O    -3.792441     1.608677     7.854588
H    -4.668488     1.995598     8.114622
H    -1.845763     9.609747    -0.733817
O    -2.707000     9.483525    -0.260747
H    -3.317179     10.112721    -0.649030
H    -5.943166     4.689568    -2.936753
O    -6.851469     4.571286    -3.282197
H    -6.760573     3.869402    -3.959723
H     0.088150    -7.071095    -1.142122
O     0.551059    -7.507630    -0.393941
H    -0.129308    -7.702824     0.253607
H    -7.634453     3.791788    -1.974755
O    -7.897171     3.204424    -1.235458
H    -7.754462     2.295907    -1.575614
H     3.925799    -0.251044     7.641247
O     3.936995     0.476624     6.981649
H     4.851988     0.655751     6.719619
H     2.261736     5.788198    -1.165179
O     3.196942     5.494753    -1.050029
H     3.374253     4.955035    -1.843289
H     6.542512    -5.942943     0.684905
O     6.172565    -6.678713     1.218643
H     5.267336    -6.401398     1.442550
H    -3.878624     4.719055     7.786123
O    -3.311590     4.255214     7.128014
H    -3.509143     3.312593     7.236239
H     5.753350    -7.957890     0.147546
O     5.465885    -8.644295    -0.490697
H     4.637603    -8.317998    -0.886230
H    -0.576096     2.046440     7.705821
O    -1.200795     1.951878     6.966630
H    -2.074014     1.826791     7.358998
H    -6.387948    -0.124021     1.060273
O    -6.706352    -0.206898     0.146723
H    -7.625385    -0.476813     0.162672
H    -5.376455    -3.066212    -0.591362
O    -5.124568    -2.364578     0.035214
H    -5.693846    -1.591206    -0.152706
H     4.318188     5.567374     0.337364
O     4.651278     5.667034     1.242941
H     3.956720     6.177140     1.695293
H    -9.045059    -1.742746    -2.260625
O    -8.498106    -1.542372    -1.473661
H    -8.626926    -2.279421    -0.836763
H    -5.516826     3.472746    -5.525972
O    -6.035199     2.762081    -5.112517
H    -5.369612     2.175869    -4.698294
H     3.185370    -0.893977    -5.644131
O     2.330015    -1.013153    -6.111156
H     2.415713    -1.861807    -6.585196
H     8.119660    -1.359163    -6.010716
O     8.126442    -2.223441    -5.554744
H     7.270392    -2.622591    -5.807099
H     7.627984     0.981781    -6.290805
O     7.439029     0.133804    -6.704715
H     6.457703     0.084675    -6.742584
H    -7.868028    -3.694019     0.923039
O    -8.545280    -3.585955     0.237713
H    -8.446915    -4.345035    -0.364388
H    -2.406036     8.730983     1.303205
O    -2.256953     8.141644     2.055947
H    -1.486617     7.588380     1.833989
H    -4.447109     6.429802     3.502593
O    -4.616095     6.856226     2.646089
H    -3.852209     7.441919     2.507751
H     3.405762     3.439052    -3.562992
O     3.253012     4.408329    -3.469381
H     2.288324     4.473843    -3.578182
H    -6.115212    -1.604892    -3.445084
O    -6.199562    -2.184602    -2.661586
H    -6.984142    -1.877266    -2.153930
H     6.452094     1.036714     4.767099
O     6.070798     1.588757     5.465286
H     6.258470     2.502941     5.160367
H     1.368343     1.718175    -5.812288
O     1.172265     1.121903    -5.058733
H     1.535572     0.258793    -5.328623
H    -2.503207     2.950905     10.490619
O    -2.291407     2.043716     10.215251
H    -2.890582     1.845450     9.483693
H     7.603205    -0.531492     3.117724
O     6.846428     0.036406     3.287362
H     6.161820    -0.558468     3.674395
H    -5.667907    -8.056077    -0.708055
O    -4.933870    -8.125712    -0.060803
H    -4.937955    -7.308887     0.461898
H    -5.174096    -0.117891    -4.715675
O    -5.791315    -0.829090    -4.956790
H    -6.628890    -0.386694    -5.155736
H     1.897552    -0.201731    -7.505300
O     1.697539     0.270793    -8.349174
H     2.274845    -0.134449    -9.001713
H     4.881584    -1.397859    -9.290764
O     3.956995    -1.168115    -9.574115
H     3.938085    -1.285256    -10.523273
H     7.561095    -2.590805     4.206676
O     7.708483    -2.625437     3.244694
H     7.209091    -3.412182     2.972928
H     6.705927    -5.910277     2.699467
O     6.768084    -5.235736     3.401632
H     7.643120    -5.322609     3.819695
H    -1.822601     8.939792     3.508246
O    -1.576188     9.243649     4.407205
H    -2.425568     9.376628     4.861361
H    -7.384832     1.570735    -5.252831
O    -7.960440     0.826826    -5.008920
H    -8.862031     1.226988    -4.934021
H     6.934468    -1.089843    -8.387770
O     6.352329    -1.810284    -8.652679
H     6.123016    -2.260548    -7.821351
H    -1.665158     6.240691    -7.013461
O    -2.063901     5.415486    -6.740951
H    -1.816980     5.283980    -5.777005
H    -0.007326     3.285303     9.035043
O     0.181111     2.360262     9.279358
H    -0.614462     2.103430     9.794735
H     6.754687    -2.790356    -2.689459
O     6.223345    -3.534455    -2.349264
H     6.691413    -4.345401    -2.596319
H    -4.076250    -3.072713    -4.944353
O    -4.228788    -2.959344    -5.909324
H    -4.775620    -2.166017    -5.965831
H     1.912580     2.425363     8.568387
O     2.656684     2.659020     7.998048
H     3.094934     1.814527     7.749626
H    -6.913471    -5.201393    -1.401656
O    -7.828892    -5.470115    -1.648607
H    -7.961003    -5.066936    -2.531502
H    -3.834627     5.248819     5.703130
O    -3.800488     6.017309     5.112661
H    -2.866446     6.311424     5.208362
H    -7.885608     0.089224    -1.970041
O    -7.394580     0.812684    -2.382326
H    -7.621539     0.802573    -3.335916
H     5.834505     0.117175     0.428776
O     5.613182     0.838150     1.050759
H     6.116108     0.639100     1.865663
H    -6.224755     3.304046     7.398705
O    -6.097246     2.784448     8.226581
H    -6.699110     2.024484     8.137497
H     2.268976    -8.081961    -0.838117
O     2.947565    -8.069422    -1.532819
H     2.723167    -8.782704    -2.147073
H    -2.742346    -3.961646    -6.196498
O    -1.989455    -4.528624    -5.964045
H    -1.714229    -4.237873    -5.066305
H    -5.651536     3.756093     5.311836
O    -6.300464     4.152200     5.929427
H    -6.137702     5.096382     5.915593
H    -1.023115    -7.118099    -3.161850
O    -0.550746    -6.449093    -2.632556
H     0.357164    -6.380071    -3.012425
H     4.440030     2.005230     5.131450
O     3.505171     2.264351     4.996012
H     3.112351     2.286722     5.871478
H     4.092556     4.646209     6.324416
O     4.184414     5.370857     5.700958
H     3.616339     5.133046     4.930098
H     2.761809     3.611598     3.933350
O     2.579014     4.551233     3.768280
H     2.462668     4.649530     2.801830
H     9.391906     0.197787    -1.049282
O     8.585266     0.360430    -0.556621
H     8.408313    -0.459234    -0.065214
H    -2.114715     5.308554     10.659855
O    -2.837326     4.679900     10.889615
H    -3.057623     4.857354     11.804294
H     7.967077    -3.022640     0.342922
O     8.388569    -2.176375     0.598472
H     8.322042    -2.172369     1.560965
H     5.363809     3.653831     3.542498
O     6.023535     3.922874     4.203470
H     5.606988     4.633235     4.713496
H    -4.221608     5.013935     9.790570
O    -4.853276     5.165251     9.067362
H    -5.466154     4.417489     9.064305
H    -7.012208    -3.476306    -3.489997
O    -7.632578    -4.087419    -3.939572
H    -7.110971    -4.529434    -4.641382
H     0.014637     6.117179     10.783244
O    -0.850388     6.446692     10.534976
H    -0.733778     6.878380     9.669274
H     2.593024     1.489463    -4.093022
O     3.471514     1.841080    -3.853083
H     3.790089     1.325766    -3.082116
H    -6.986190    -0.223503     7.218060
O    -7.493911     0.555676     7.497895
H    -8.116666     0.739642     6.793565
H    -2.753405    -9.877035    -0.832710
O    -2.689219    -8.935351    -0.991919
H    -3.595157    -8.568250    -0.752244
H    -10.062912     3.081374    -4.902298
O    -10.181040     2.163826    -4.622275
H    -10.398034     2.247481    -3.672789
H    -2.086599    -3.030232     4.614674
O    -2.960585    -3.472613     4.685695
H    -2.952870    -4.089413     3.928483
H    -0.191486    -7.990021     2.489057
O     0.635362    -7.780727     2.936514
H     1.352839    -8.077473     2.349375
H     6.556654    -2.281597     6.005212
O     7.141269    -3.041962     5.916077
H     6.536739    -3.796269     5.890972
H    -5.284643    -2.008331     6.944276
O    -5.960788    -1.510802     6.459683
H    -5.943992    -1.887111     5.550095
H     0.845423     3.030018    -7.103886
O     1.762815     2.698356    -7.158885
H     1.749201     1.951260    -7.785217
H    -3.960754     8.750215     6.680616
O    -3.958134     8.748414     5.723249
H    -4.083283     7.821056     5.454969
H    -2.051065     10.311444    -2.726165
O    -2.952217     10.493780    -3.029047
H    -2.879200     11.128135    -3.741461
H     9.397740    -4.077864     4.065121
O     9.110320    -4.751064     4.690021
H     8.691618    -4.274385     5.415523
H    -0.734965    -5.999213    -5.837814
O    -0.032473    -6.566435    -5.503436
H     0.803754    -6.105670    -5.719902
H     1.827928     8.267481     0.679285
O     1.525901     8.589840    -0.198616
H     2.341308     8.627591    -0.727961
H     3.506885     2.924402    -6.648040
O     4.333694     2.633118    -6.237909
H     4.087058     2.359336    -5.329440
H     3.737413     7.116472    -1.213235
O     3.944175     8.052083    -1.426174
H     4.314635     7.996012    -2.318958
H     4.402955    -0.012857    -7.897914
O     4.778930     0.132570    -7.027871
H     4.597715     1.064574    -6.784111
H     6.029373     1.922537    -0.458385
O     6.596148     2.114418    -1.219147
H     7.419998     1.634027    -1.023877
H     6.676023    -8.442900    -1.595030
O     7.312945    -8.232144    -2.330611
H     7.679286    -9.066410    -2.618920
H    -5.302346    -5.786471    -5.410697
O    -5.918522    -5.113693    -5.725739
H    -5.366381    -4.345901    -5.961508
H     0.674396     7.160048     7.615943
O    -0.227878     7.187092     7.973967
H    -0.782008     7.204241     7.155737
H    -8.897950    -2.829414    -4.108093
O    -9.417758    -2.020476    -3.940680
H    -9.130545    -1.355591    -4.570281
H    -2.415670    -5.991082    -2.142915
O    -3.293129    -5.703600    -2.412488
H    -3.479617    -6.077588    -3.298695
H    -2.987679    -5.899940    -5.409568
O    -3.588639    -6.509412    -4.938310
H    -3.107736    -7.330288    -4.771691
H    -1.381238     3.726197    -6.974790
O    -0.841977     2.969776    -6.703701
H    -1.078948     2.185191    -7.254352
H    -0.195918     0.416507    -8.208378
O    -1.092114     0.652373    -7.925995
H    -1.268829     0.128483    -7.128604
H    -10.419538     4.057922    -2.737757
O    -10.488281     3.278997    -2.170132
H    -9.659565     3.251701    -1.660261
H     4.577789     4.070221     1.736286
O     4.367139     3.148502     2.010648
H     5.085007     2.573249     1.733740
H     6.489296     1.388663    -4.202103
O     6.184909     0.764387    -3.508784
H     6.215015     1.259543    -2.664797
H     9.629108    -2.239858    -0.909842
O     9.907051    -2.025464    -1.809250
H     9.107561    -1.685698    -2.253416
H     9.967526    -3.334007    -3.078984
O     9.700587    -3.985525    -3.754489
H     9.308565    -3.477196    -4.475165
H    -7.707114    -8.572789    -1.674039
O    -6.968697    -7.978842    -1.800883
H    -7.345740    -7.065570    -1.790963
H     4.167494     6.073561    -3.804316
O     4.829038     6.774233    -3.718269
H     5.664720     6.319686    -3.579646
H     0.094457    -8.173315    -5.212911
O     0.117369    -9.156308    -5.081550
H     0.268480    -9.519766    -5.954133
H    -2.339996    -8.675874    -2.716823
O    -2.104516    -8.411458    -3.625778
H    -1.458232    -9.030428    -3.984262
H     2.175988    -10.822142    -3.492080
O     2.130465    -9.867587    -3.467013
H     1.346013    -9.595900    -3.994221
H     6.841483     3.321124    -4.555699
O     6.899918     2.643057    -5.256674
H     6.107391     2.777316    -5.798493
H    -3.582391    -3.725876     7.723653
O    -3.683461    -2.934715     7.195847
H    -3.440058    -3.177359     6.276285
H    -0.634951    -3.363526    -6.719737
O    -0.003934    -2.632749    -6.725731
H    -0.485488    -1.856969    -6.384518
H     0.557932     0.433688     8.787485
O     0.580432    -0.418115     8.333322
H    -0.361202    -0.641198     8.193330
H    -5.826159     7.370165    -4.247188
O    -6.328827     6.751972    -4.809196
H    -6.617187     6.021040    -4.218716
H    -4.270837     9.103454    -3.256030
O    -4.807232     8.307634    -3.150827
H    -4.400089     7.827465    -2.411641
H    -9.704540     5.802589    -4.647322
O    -10.238700     4.998211    -4.484906
H    -11.118740     5.199933    -4.804739
H     2.760826     6.501780     6.158284
O     1.800379     6.598765     6.252455
H     1.456498     5.685351     6.148409
H     4.806951     8.537703     0.102612
O     5.123135     8.538010     1.023926
H     5.529207     7.673369     1.155278
H     4.139220    -7.432805    -4.333989
O     3.381571    -7.716445    -4.877442
H     3.100136    -8.557545    -4.502479
H     0.375073     8.651383     4.248177
O     1.052354     8.006243     4.020328
H     1.277644     7.512585     4.834902
H     5.239598     4.182992    -3.140588
O     6.200961     4.151816    -3.086823
H     6.408435     3.570274    -2.338718
H    -2.567088    -1.550269     7.582212
O    -2.049986    -0.762287     7.807329
H    -2.676558    -0.133488     8.177001
H    -9.019721     7.941843    -4.145826
O    -8.956038     7.357345    -4.902635
H    -7.998899     7.192829    -5.036825
H     3.518417    -8.989489     1.096561
O     2.842511    -8.356993     1.345645
H     3.317555    -7.552383     1.626323
H     3.584766     8.162656     1.846264
O     2.793311     7.600159     1.956786
H     2.346814     7.835060     2.783013
N     3.379869    -1.532670     8.726238
H     3.493983    -2.270230     8.097253
H     2.422145    -1.406293     8.800490
