45

H    -0.099627    -1.245091     3.086503
O     0.377977    -0.551907     2.601012
H    -0.084866     0.271217     2.842099
H    -0.289147    -3.545061     3.716621
O    -0.668521    -2.743432     4.114490
H    -0.415591    -2.800114     5.065262
H     1.997932    -1.759031     2.970278
O     2.092253    -2.716670     2.839748
H     1.479289    -2.906364     2.098844
H    -2.476351     0.291185     3.336494
O    -2.731803    -0.530437     3.817124
H    -1.973495    -0.588664     4.436119
H    -0.892700     0.653206     6.026390
O    -0.614701     0.106047     5.265211
H     0.177731    -0.401817     5.571920
H     0.674673    -5.090618     1.933734
O     0.165579    -5.151703     2.768154
H     0.266814    -6.086670     3.024756
H     1.937574    -3.579218     4.448238
O     2.051118    -4.058551     5.296192
H     2.736137    -3.525003     5.761559
H     4.563122    -2.307826     5.622800
O     4.252511    -2.813074     6.414248
H     4.621084    -3.706111     6.266886
H     2.366008    -5.671149     4.886828
O     2.758831    -6.537874     4.616953
H     2.033712    -7.123086     4.375179
H     2.122159    -0.667233     5.258636
O     1.599093    -1.105854     5.957235
H     1.744383    -0.603750     6.773937
H    -2.275083    -3.146025     4.436195
O    -3.132995    -3.595874     4.640907
H    -3.177245    -4.252835     3.923567
H    -3.587783    -3.529137     7.831929
O    -3.677057    -2.847173     7.165255
H    -3.485393    -3.282228     6.299635
H     0.612807     0.561845     8.972005
O     0.560411    -0.229240     8.422611
H    -0.400383    -0.365298     8.301182
H    -2.638957    -1.420112     7.585860
O    -2.158536    -0.619124     7.878525
H    -2.831096    -0.043402     8.261071
N    -0.207367    -3.340833     6.734950
H     0.042002    -2.562056     7.244410
H     0.655329    -3.675082     6.412825
