30

H    -4.893998     2.474639     1.399861
O    -4.204784     2.099330     1.993623
H    -3.400834     2.054004     1.420572
H    -1.129380     5.454435     2.145017
O    -1.762402     4.705011     2.060575
H    -1.622882     4.171347     2.851688
H    -2.703930     3.263175     4.776862
O    -1.725442     3.247264     4.702893
H    -1.407146     2.809418     5.516207
H    -3.116284     4.942050     0.990529
O    -3.926233     5.287436     0.558412
H    -4.285674     5.836960     1.295839
H    -4.405124     2.777361     3.621037
O    -4.392512     2.875284     4.602640
H    -4.460120     1.950795     4.929518
H    -5.085734     4.059790    -0.002389
O    -5.542088     3.194817    -0.041865
H    -6.478127     3.307862    -0.308268
H    -4.269380     6.367053     3.498156
O    -4.547896     6.800433     2.665011
H    -3.809551     7.413532     2.483743
H    -3.745353     5.288150     5.796133
O    -3.735881     6.049115     5.189287
H    -2.806105     6.367092     5.313782
H    -5.678065     3.708868     5.343952
O    -6.438390     4.098381     5.845096
H    -6.167588     4.996907     6.057390
N    -6.492003     4.463337     2.744162
H    -6.895506     4.444377     3.619775
H    -6.218169     5.380690     2.630218
