15
Coordinates from ORCA-job grain_mol_opt.QMRegion
  H   -4.08529681578845     -3.04291528808530     -4.87154663723046
  O   -4.25843901423257     -2.94123917876816     -5.83843089145805
  H   -4.75555314075768     -2.11114491545942     -5.88127660157655
  H   -7.01055078709892     -3.40613356660768     -3.43200749064628
  O   -7.62814126076257     -4.01958856037893     -3.89493542261806
  H   -7.08993235659894     -4.44294345840839     -4.59107673954581
  H   -5.29479601045225     -5.75774373276713     -5.41587152532643
  O   -5.91834927048233     -5.12319470277306     -5.80688637441681
  H   -5.36539099616917     -4.32262366354085     -5.95664072705839
  H   -2.90403310576224     -5.89315906836827     -5.36444893617878
  O   -3.53046396188893     -6.49655970219760     -4.91204778403589
  H   -3.03038100448333     -7.29915480758597     -4.68497600097865
  O   -5.94796845781854     -6.34650187105880     -8.41344476884125
  H   -6.82166092155695     -6.22320608998204     -8.79425290966859
  H   -6.00969558459582     -5.91496898652134     -7.54209221727974
