27
Coordinates from ORCA-job grain_mol_opt.QMRegion
  H   -4.57263050501772     -5.18107261057742     -1.60217415527000
  O   -5.31732923516111     -4.88764983102763     -1.03970316169152
  H   -5.03462240047536     -5.18425568072575     -0.14799649861640
  H   -5.28897479930405     -5.17032941329825      1.81897464263273
  O   -4.60909876520003     -5.78681181042218      1.46806839647092
  H   -3.76654194210538     -5.35440445088743      1.73110422340958
  H   -5.78206364933504     -3.16027853404043      1.27899621689490
  O   -6.28814693347953     -3.69231315701447      1.94372887498947
  H   -6.07679640560267     -3.24800592898203      2.79241998062397
  H   -9.04255300689636     -1.76095704653487     -2.40035672394399
  O   -8.53326302634393     -1.54046769574391     -1.59051003264776
  H   -8.66068987645677     -2.25159063723853     -0.92798543808616
  H   -7.90906343405168     -3.58275016536260      0.91980478276349
  O   -8.61422644505629     -3.56285994097156      0.24700111595957
  H   -8.34907635397208     -4.23137403404987     -0.41578308387329
  H   -5.65559987335332     -8.24414392125195     -0.45660610272539
  O   -4.84820841934006     -8.27719484271893      0.10562392666163
  H   -4.80281387735993     -7.41153394514362      0.53949204690810
  H   -6.89876186827989     -5.29896765595253     -1.50427704953867
  O   -7.85003755978098     -5.45289386649998     -1.73342259463044
  H   -7.94234148749046     -5.01660833050814     -2.61167495226437
  H   -7.84877763238170     -8.12740818354009     -0.51096840414460
  O   -7.20323396838425     -8.24808052209965     -1.22802283403281
  H   -7.35010916877397     -7.44467081923258     -1.75238339327307
  O   -9.24147652641571     -6.98854066387125      0.37030616772979
  H   -9.10417297312944     -6.34251010447712     -0.33875805217688
  H   -9.20727635354689     -6.45523400049315      1.17111539100668
