27

H     6.424989    -4.108372    -0.492095
O     7.203062    -4.503516    -0.058921
H     7.650275    -4.940842    -0.816274
H     7.649593    -0.189878     3.212203
O     6.793279     0.227425     3.314636
H     6.194455    -0.499450     3.635480
H     7.408013    -2.560730     4.199800
O     7.278868    -2.558715     3.236095
H     6.993963    -3.482279     3.067122
H     6.731862    -5.934524     2.718125
O     6.805114    -5.239225     3.401855
H     7.701856    -5.282218     3.802897
H     9.327819     0.238130    -1.053908
O     8.638896     0.491992    -0.432480
H     8.379688    -0.348974    -0.023766
H     8.035652    -3.030936     0.452821
O     8.459246    -2.224617     0.824739
H     8.038397    -2.165790     1.711967
H     9.669390    -4.262970     3.919187
O     9.191696    -4.768482     4.608577
H     8.874195    -4.105862     5.235488
H     9.672902    -2.230079    -1.082877
O     9.911707    -1.879220    -1.948707
H     9.045795    -1.637539    -2.352469
N     10.499438    -3.491760     2.404337
H     10.916819    -4.159580     1.852655
H     9.868553    -3.036587     1.810937
