42
Coordinates from ORCA-job grain_mol_opt.QMRegion
  H   -0.35484125514264      6.87491031030037     -2.25379053271683
  O   -1.11187746560339      7.27658937076095     -2.75500362797561
  H   -1.88598071629518      7.16141338192758     -2.15568937770204
  H   -0.97466890364636      4.46079225186812     -3.86393617526684
  O   -1.63206946013132      5.09683701457189     -4.19637842248449
  H   -1.42353969076525      5.94175320616286     -3.74264350823468
  H   0.71709584009499      3.23529569180467     -2.58214346052972
  O   0.69279782486919      3.63445333346107     -3.48928917218862
  H   0.67887020203881      2.84255715004337     -4.04156514766403
  H   -1.18358970124055      1.45989246433349     -3.88874485141312
  O   -1.78888947085500      2.12722442590339     -4.27542465187275
  H   -1.48465334844089      2.34423705045990     -5.17862588185412
  H   2.24060550458487      5.81350870993864     -1.17914317535702
  O   3.16814696383187      5.51051359283517     -1.02993693864918
  H   3.36393633996630      4.89892034786654     -1.76361257086794
  H   3.45053212197576      3.36544898943666     -3.53713783433518
  O   3.37414827053846      4.35260608052157     -3.47568802407375
  H   2.41153203994889      4.44846758220588     -3.54084434563102
  H   1.35917873875268      1.56135997557905     -5.84650926244645
  O   1.18899531299787      0.99077111632474     -5.06517504200153
  H   1.57008626745789      0.12949640257179     -5.34801928958970
  H   -1.31968604496191      5.87870516403135     -7.13082278061107
  O   -1.98293085884587      5.28793656437607     -6.76361179598476
  H   -1.76726665390367      5.26455030970779     -5.78244803415341
  H   2.66834169712000      1.39749967719916     -4.08198597672325
  O   3.54145436158256      1.76807099565024     -3.84932085177979
  H   3.85150990869160      1.26685497502926     -3.05812708054270
  H   0.75316926779917      2.89284232270037     -7.16584330887869
  O   1.71272880738450      2.66332517857860     -7.22565669408048
  H   1.74271816772910      1.90042089215623     -7.83931238332464
  H   3.53809137789458      2.88956704923785     -6.66171928259043
  O   4.37050636136655      2.60799971359124     -6.26246742545415
  H   4.12686394118787      2.27130407873708     -5.37295805155650
  H   -1.39271159618612      3.68854975200952     -6.98487628977614
  O   -0.90433046942389      2.86650806749740     -6.72663943700196
  H   -1.15262520070246      2.12026944948614     -7.32404912784426
  H   4.39097731113572      6.26029253516199     -3.95010247489999
  O   5.08316286680597      6.89784045944698     -3.72879843620336
  H   5.80257417507295      6.32971365579468     -3.42379347382098
  O   1.04956411654769      5.73847006105298     -6.14755586733368
  H   1.62411009395650      5.10976512382944     -6.59703635601877
  H   0.74267420086343      5.25780289176889     -5.36994081965623
