27

H    -5.666694     0.845149    -1.534621
O    -4.765323     1.200143    -1.486257
H    -4.854164     2.076747    -1.059630
H    -4.988877     4.201009     0.104260
O    -5.425690     3.338944    -0.075242
H    -6.365219     3.467657    -0.290120
H    -7.661974     3.780832    -2.014865
O    -7.915400     3.144901    -1.308401
H    -7.750216     2.263315    -1.737081
H    -6.247760    -0.140197     1.131956
O    -6.625170    -0.136804     0.232821
H    -7.577748    -0.023308     0.354142
H    -9.051164    -1.887359    -2.282941
O    -8.526279    -1.605278    -1.506600
H    -8.587626    -2.315812    -0.823578
H    -7.859152     0.011322    -2.018976
O    -7.377832     0.747723    -2.439299
H    -7.634427     0.734880    -3.388501
H    -10.015705     3.049609    -4.955314
O    -10.240527     2.134809    -4.727984
H    -10.422638     2.224161    -3.772284
H    -10.521975     4.084991    -2.849557
O    -10.602497     3.358980    -2.209603
H    -9.720239     3.334455    -1.791736
N    -9.225877     0.922523     0.502992
H    -9.843146     0.493683    -0.097640
H    -9.103768     1.809420     0.140175
