603

H     0.211812     3.017032    -0.668652
O     0.734191     2.346393    -1.159102
H     1.672601     2.472614    -0.882541
H    -0.089416    -1.312094     3.169089
O     0.306022    -0.614337     2.624137
H    -0.169602     0.201199     2.854330
H    -2.390098     2.404484    -0.532850
O    -2.183533     1.935098     0.292809
H    -2.200967     0.986821     0.069671
H    -4.667941     0.553268     2.181967
O    -4.987776    -0.379190     2.195969
H    -4.482257    -0.859549     1.532037
H     0.059905    -0.318806     0.967716
O    -0.135803    -0.082781     0.040278
H     0.208604     0.811760    -0.081469
H    -0.175397    -3.580568     3.800568
O    -0.454035    -2.749396     4.218924
H     0.190851    -2.578212     4.921719
H    -4.883147     2.535643     1.325348
O    -4.246828     2.125450     1.942928
H    -3.402570     2.104202     1.432691
H    -3.230856     3.891057    -2.214335
O    -2.495725     3.292421    -1.979947
H    -2.135340     3.001862    -2.837899
H    -0.139524    -3.816376     0.526202
O     0.201910    -2.999440     0.944008
H    -0.584522    -2.509221     1.252186
H    -2.389919    -1.538362     2.480940
O    -2.200182    -2.007000     1.641669
H    -2.454007    -1.420539     0.910001
H     2.068074    -1.462045    -1.095642
O     2.292557    -1.710460    -0.175490
H     1.502236    -2.138248     0.205237
H    -1.391316     1.820447     1.919257
O    -1.487418     1.424896     2.795783
H    -1.472441     2.138461     3.459391
H     0.205506    -2.718260    -1.548755
O    -0.548591    -2.105171    -1.606214
H    -0.369133    -1.377710    -0.973461
H    -3.444280    -2.928320    -0.380300
O    -2.726967    -3.423398    -0.797443
H    -2.014540    -2.795094    -1.015167
H     2.764310     0.113961     2.956973
O     2.858950    -0.066855     3.919644
H     2.951617     0.826579     4.322507
H    -3.509481     6.377550    -0.551505
O    -3.267136     7.038117    -1.252274
H    -3.124215     7.883672    -0.783159
H     3.900312     0.561680     1.211847
O     2.948622     0.384700     1.326365
H     2.709675    -0.368137     0.747955
H    -5.774359     0.844607    -1.608669
O    -4.863352     1.169481    -1.480358
H    -4.973369     1.999310    -0.970865
H    -1.203270     5.393232     2.210787
O    -1.830089     4.647690     2.093818
H    -1.911588     4.230888     2.956888
H     3.499683     2.740716     0.445366
O     3.254162     2.696888    -0.494335
H     3.586004     1.852810    -0.842259
H     1.489331    -4.715696    -2.225506
O     1.552006    -3.937244    -1.653222
H     2.352240    -3.480642    -1.993913
H    -0.914366    -0.099373    -2.535440
O    -0.276889     0.550050    -2.859106
H    -0.017199     1.133527    -2.122796
H     1.687555    -4.700291    -0.151459
O     1.795460    -5.338304     0.590013
H     1.330564    -6.149123     0.294885
H    -1.227634    -3.279902    -2.861827
O    -1.053811    -3.965049    -3.520634
H    -0.931167    -4.811513    -3.049668
H    -2.785829     3.314512     4.704617
O    -1.804507     3.309079     4.673638
H    -1.515315     2.907934     5.511426
H     0.963721     5.027999     4.083763
O     0.018187     5.263120     4.132975
H    -0.456831     4.461709     4.390746
H    -1.742991    -4.658591    -0.352530
O    -0.980265    -5.200867    -0.063847
H    -1.331640    -5.885660     0.514512
H    -3.893389     5.826629    -2.606509
O    -4.245747     4.993007    -2.935781
H    -4.087860     4.955744    -3.903386
H    -2.447763    -3.690184     1.951392
O    -2.469559    -4.593677     2.328858
H    -1.530903    -4.833898     2.472421
H    -4.696043    -2.983694    -2.891707
O    -3.843201    -3.219874    -3.295011
H    -3.515812    -4.013436    -2.827109
H     0.328875     1.373187     4.628320
O     0.837644     2.131366     4.294500
H     0.886657     2.791440     5.000289
H    -4.666019    -5.171573    -1.559512
O    -5.368666    -4.815023    -0.988663
H    -5.159164    -5.168052    -0.103125
H     2.318956    -6.507631    -4.004663
O     1.980414    -6.175195    -3.153013
H     2.411981    -6.750256    -2.488297
H     0.469286    -3.400916    -3.981798
O     1.274595    -3.036611    -4.402477
H     0.959007    -2.665874    -5.252846
H     1.950064    -1.765143     3.006352
O     2.101352    -2.697363     2.792161
H     1.417440    -2.909152     2.122818
H    -3.011294    -1.818509    -3.200140
O    -2.586751    -0.933135    -3.135639
H    -3.239402    -0.286238    -3.458482
H    -3.179887     4.975276     1.075308
O    -3.959163     5.350138     0.617796
H    -4.374783     5.910559     1.321637
H     0.874336     2.244031     2.604008
O     0.978087     2.237060     1.633154
H     1.704075     1.611640     1.472527
H     0.208240     5.642824    -0.754027
O     0.733102     6.302286    -1.262712
H     0.875965     7.102705    -0.708078
H     0.355234     7.028237     2.592821
O    -0.005753     6.647199     1.775209
H     0.657016     5.974109     1.516956
H    -2.490229     0.217319     3.348226
O    -2.715856    -0.595049     3.854207
H    -1.957158    -0.635406     4.478120
H    -0.910982     0.556566     6.036609
O    -0.636355     0.034529     5.264146
H     0.074752    -0.570222     5.554030
H     0.690143    -5.003865     2.006396
O     0.145520    -5.111159     2.809326
H     0.285685    -6.032077     3.082786
H    -2.144071    -8.093108     0.473343
O    -1.823032    -7.604875     1.258999
H    -2.610026    -7.289752     1.711157
H    -0.353503     6.848364    -2.325188
O    -1.097325     7.269555    -2.827375
H    -1.889232     7.146506    -2.265743
H    -1.103467     4.302058     0.577025
O    -0.727882     4.360471    -0.318113
H    -1.433276     4.119062    -0.952039
H    -4.412624     2.755469     3.503493
O    -4.413669     2.927778     4.467767
H    -4.500626     2.045754     4.878298
H     2.000679    -3.591990     4.271539
O     1.933838    -4.063053     5.125474
H     2.439957    -3.526090     5.756701
H     4.696715    -3.218826     0.853937
O     4.513585    -3.134605    -0.104709
H     3.652958    -2.661196    -0.172013
H    -2.721713    -0.754853    -1.343301
O    -3.051102    -0.482560    -0.470335
H    -3.849213     0.045489    -0.680566
H    -1.606083    -0.777084    -4.619531
O    -1.096170    -0.564309    -5.422402
H    -0.385389     0.030653    -5.136296
H     1.797480    -1.740802    -3.355048
O     1.892758    -0.993488    -2.732818
H     1.117916    -0.413366    -2.866028
H     3.647312    -3.138491     2.576995
O     4.605793    -3.370047     2.514736
H     4.656783    -4.328573     2.646043
H     3.385345    -6.140637     3.167071
O     3.747873    -5.947673     2.267416
H     3.019986    -5.594803     1.715939
H    -3.327682     1.600668    -4.175719
O    -4.174742     1.133193    -3.986668
H    -4.394469     1.281220    -3.030869
H    -5.071403     4.150911     0.058382
O    -5.512331     3.285977    -0.044404
H    -6.441521     3.407411    -0.329143
H     6.736793    -1.218893    -1.316184
O     5.953078    -1.071374    -0.781308
H     5.541175    -1.941720    -0.567509
H     4.604871    -3.219529    -2.401601
O     3.757367    -3.030645    -2.840882
H     3.758203    -3.650785    -3.598353
H     4.410203    -2.308175     5.653676
O     4.063930    -2.770734     6.447379
H     4.395773    -3.677231     6.369112
H    -0.751157     6.338275     5.075308
O    -1.347684     6.917012     5.610528
H    -1.357300     7.793168     5.167166
H     4.700234    -0.167613    -1.435862
O     3.936918     0.378479    -1.704144
H     3.242990    -0.220636    -2.033152
H    -0.718639     4.505499    -4.033440
O    -1.499074     5.050490    -4.244984
H    -1.346285     5.917540    -3.823732
H     0.675725     3.184354    -2.647549
O     0.686425     3.559129    -3.556887
H     0.733451     2.794263    -4.140571
H    -5.405345    -5.185622     1.803878
O    -4.709434    -5.783360     1.452128
H    -3.868440    -5.369299     1.724058
H     7.880185    -1.740855    -3.994343
O     7.610858    -1.438743    -3.093874
H     7.137025    -0.587345    -3.248288
H     3.690495    -5.095073    -5.266244
O     4.447732    -4.738734    -4.765350
H     4.801898    -5.469004    -4.215508
H    -3.799689     0.027610     4.938608
O    -4.400714     0.494691     5.568802
H    -5.063890    -0.160727     5.859834
H     3.390873    -5.830254    -0.605427
O     4.214168    -5.569228    -1.030929
H     4.351682    -4.637266    -0.754818
H     5.011090    -0.370195    -4.130993
O     4.474694    -1.082169    -4.518706
H     4.149412    -1.661730    -3.798169
H    -1.157495     1.555236    -3.928147
O    -1.805104     2.176943    -4.316854
H    -1.444231     2.505798    -5.162852
H     5.001644    -6.300967    -2.404858
O     5.334986    -6.713184    -3.229434
H     6.277273    -6.521108    -3.322973
H     8.668553    -4.891922    -3.674601
O     7.980728    -5.506186    -3.318482
H     8.404219    -5.877833    -2.522290
H     2.349643     4.701223     0.463696
O     1.768063     4.686650     1.233186
H     1.407888     3.767464     1.311769
H    -4.436896    -2.624366     4.238953
O    -5.329309    -2.282636     4.033411
H    -5.188503    -1.503154     3.456543
H    -5.860861    -3.187428     1.321996
O    -6.327195    -3.741700     1.990245
H    -6.139858    -3.304961     2.840381
H     1.675825     3.465617     6.875157
O     1.055805     3.981832     6.338568
H     0.271726     4.138446     6.907643
H     4.981746    -2.189688     3.649276
O     5.003223    -1.470730     4.313446
H     4.194105    -0.911796     4.152887
H     2.356581    -5.584820     4.873304
O     2.733243    -6.472325     4.618573
H     1.986180    -7.050565     4.442040
H     2.256351    -4.545546    -6.764276
O     2.081981    -5.033246    -5.949401
H     1.821239    -4.341673    -5.293089
H     6.780160    -4.111659    -0.835321
O     7.135220    -4.444924     0.028676
H     7.857855    -5.048388    -0.217223
H    -1.735267     4.499092     7.701830
O    -0.837305     4.595406     8.089780
H    -0.653550     5.554077     8.112398
H    -5.087237     5.685512    -5.607855
O    -4.481895     4.920165    -5.624808
H    -3.722357     5.131104    -6.189043
H     3.298990    -2.567575    -8.406235
O     3.206029    -3.097252    -7.603618
H     4.081697    -3.077989    -7.172124
H    -0.628984     8.812153    -2.283708
O    -0.504959     9.641480    -1.766430
H     0.255158     9.466024    -1.187133
H     2.047055    -0.920657     5.233691
O     1.471350    -1.443608     5.821032
H     1.563839    -1.096315     6.717612
H     5.214610    -2.070699    -5.655857
O     5.560276    -2.838894    -6.174379
H     5.287278    -3.627777    -5.654962
H     5.659006    -5.230252     4.735295
O     5.135876    -5.150678     5.561319
H     4.410989    -5.777837     5.469019
H    -3.992457     1.160893     7.008252
O    -3.801369     1.637869     7.851680
H    -4.677039     2.026709     8.109115
H    -1.822248     9.606824    -0.756302
O    -2.684353     9.484112    -0.283878
H    -3.292654     10.113300    -0.675117
H    -5.927815     4.689465    -2.950477
O    -6.835876     4.572319    -3.296967
H    -6.745562     3.868117    -3.972193
H     0.076579    -7.079392    -1.112817
O     0.536322    -7.514246    -0.361819
H    -0.146107    -7.705839     0.284506
H    -7.622348     3.798207    -1.988395
O    -7.887654     3.213669    -1.247797
H    -7.746207     2.303807    -1.584904
H     3.949259    -0.901959     7.013931
O     3.961142     0.062153     7.004143
H     4.774771     0.349028     6.572957
H     2.277007     5.774687    -1.170730
O     3.211424     5.479794    -1.053232
H     3.388764     4.937186    -1.844586
H     6.244134    -5.878146     0.701529
O     6.026196    -6.628849     1.297793
H     5.131415    -6.388692     1.619674
H    -3.878387     4.745595     7.774718
O    -3.311211     4.279666     7.118427
H    -3.507808     3.337074     7.230281
H     5.448148    -7.979853     0.291950
O     5.166494    -8.770461    -0.220709
H     4.442322    -8.440393    -0.794355
H    -0.575091     2.047959     7.702392
O    -1.206496     1.983550     6.965752
H    -2.076501     1.845483     7.360201
H    -6.388005    -0.111599     1.059628
O    -6.705980    -0.196336     0.146057
H    -7.625598    -0.464224     0.162142
H    -5.381405    -3.060746    -0.582014
O    -5.128967    -2.358158     0.043230
H    -5.695958    -1.583847    -0.147627
H     4.331476     5.553307     0.335397
O     4.663048     5.655249     1.241313
H     3.968606     6.168328     1.690440
H    -9.044958    -1.734118    -2.259827
O    -8.498749    -1.532549    -1.472667
H    -8.629868    -2.267509    -0.833831
H    -5.500752     3.464038    -5.535480
O    -6.021320     2.755828    -5.120595
H    -5.357577     2.169323    -4.703719
H     3.192006    -0.922587    -5.628821
O     2.337051    -1.041198    -6.096645
H     2.422228    -1.891250    -6.568484
H     8.110664    -1.376723    -6.005648
O     8.130529    -2.236466    -5.540714
H     7.281865    -2.656567    -5.783208
H     7.635754     0.947367    -6.277692
O     7.445289     0.101981    -6.696206
H     6.463612     0.051184    -6.730476
H    -7.876337    -3.678551     0.930985
O    -8.552653    -3.571212     0.244603
H    -8.454928    -4.332173    -0.355234
H    -2.387024     8.735218     1.282422
O    -2.240001     8.147969     2.037212
H    -1.470914     7.592033     1.817707
H    -4.436504     6.445060     3.485584
O    -4.603236     6.869673     2.627708
H    -3.837687     7.453007     2.488806
H     3.419116     3.416268    -3.560129
O     3.268105     4.386173    -3.469548
H     2.303712     4.453210    -3.579978
H    -6.113124    -1.606134    -3.440610
O    -6.200009    -2.183435    -2.655610
H    -6.984380    -1.872652    -2.149792
H     6.455088     1.028518     4.770194
O     6.061251     1.569775     5.471507
H     6.252382     2.487243     5.178759
H     1.380629     1.693195    -5.807464
O     1.182203     1.099622    -5.052476
H     1.544310     0.234970    -5.319140
H    -2.511937     2.982272     10.485568
O    -2.301810     2.073358     10.215030
H    -2.897895     1.873944     9.481259
H     7.614321    -0.523408     3.120616
O     6.865222     0.054044     3.287797
H     6.170680    -0.544885     3.664896
H    -5.683769    -8.050202    -0.683903
O    -4.951057    -8.119748    -0.035168
H    -4.953676    -7.301154     0.484749
H    -5.167048    -0.124858    -4.714148
O    -5.785601    -0.835323    -4.954059
H    -6.621864    -0.391610    -5.155496
H     1.907850    -0.233025    -7.493983
O     1.709959     0.237610    -8.339444
H     2.287100    -0.170939    -8.990084
H     4.891273    -1.441635    -9.271910
O     3.967968    -1.209228    -9.557504
H     3.949792    -1.330453    -10.506156
H     7.540257    -2.592858     4.250722
O     7.701107    -2.626109     3.293618
H     7.198105    -3.406045     3.008328
H     6.698972    -5.841071     2.752678
O     6.778406    -5.174065     3.461883
H     7.635578    -5.303808     3.910876
H    -1.806165     8.949299     3.487493
O    -1.560211     9.255327     4.385881
H    -2.409937     9.391237     4.838594
H    -7.373260     1.567098    -5.259335
O    -7.950974     0.825194    -5.014275
H    -8.851709     1.227621    -4.941684
H     6.942823    -1.136343    -8.367760
O     6.359051    -1.856416    -8.629843
H     6.130098    -2.305284    -7.797593
H    -1.640934     6.219244    -7.025650
O    -2.042142     5.395847    -6.751314
H    -1.796603     5.266331    -5.786726
H    -0.016707     3.319311     9.031199
O     0.176819     2.399566     9.289087
H    -0.623840     2.138989     9.793709
H     6.793264    -2.748522    -2.642905
O     6.338120    -3.571301    -2.353646
H     6.809821    -4.286592    -2.837225
H    -4.075620    -3.082823    -4.932755
O    -4.226977    -2.971875    -5.898198
H    -4.771752    -2.177359    -5.957608
H     1.960736     2.184812     8.481319
O     2.626807     2.293839     7.792865
H     3.046770     1.422127     7.680351
H    -6.922065    -5.195052    -1.387806
O    -7.837793    -5.462372    -1.635243
H    -7.967736    -5.061409    -2.519484
H    -3.829664     5.269275     5.690166
O    -3.793051     6.036343     5.097832
H    -2.858435     6.328092     5.193736
H    -7.881751     0.096233    -1.972925
O    -7.388732     0.817462    -2.386739
H    -7.614340     0.804913    -3.340595
H     5.833486     0.096809     0.441634
O     5.613354     0.822279     1.059175
H     6.120772     0.628528     1.874109
H    -6.228099     3.335647     7.387044
O    -6.104164     2.818905     8.217247
H    -6.706459     2.059189     8.128958
H     2.255500    -8.090687    -0.805159
O     2.929610    -8.080489    -1.503930
H     2.705950    -8.797909    -2.113179
H    -2.742258    -3.978155    -6.180321
O    -1.991084    -4.546261    -5.945250
H    -1.715992    -4.253629    -5.048078
H    -5.649618     3.779424     5.300703
O    -6.299118     4.179359     5.915329
H    -6.132668     5.122875     5.900121
H    -1.032449    -7.129465    -3.134837
O    -0.559963    -6.460077    -2.606374
H     0.349350    -6.394246    -2.984369
H     4.433972     2.003101     5.152038
O     3.493435     2.245301     5.029087
H     3.106910     2.264526     5.909909
H     4.103650     4.647509     6.317512
O     4.188096     5.376274     5.698282
H     3.622001     5.135590     4.926281
H     2.762559     3.606595     3.937972
O     2.588099     4.546829     3.769420
H     2.471588     4.643479     2.802426
H     9.397338     0.174847    -1.034639
O     8.585079     0.342070    -0.554343
H     8.410612    -0.468340    -0.042450
H    -2.116815     5.340612     10.648580
O    -2.841248     4.714693     10.879529
H    -3.061729     4.895015     11.793588
H     7.871074    -2.914021     0.491713
O     8.381512    -2.119714     0.758712
H     8.289389    -2.131917     1.724950
H     5.369929     3.644908     3.547288
O     6.024802     3.910090     4.215006
H     5.612799     4.630729     4.713507
H    -4.223440     5.046987     9.777637
O    -4.854219     5.198184     9.053655
H    -5.468191     4.451292     9.051177
H    -7.014425    -3.475595    -3.481185
O    -7.635581    -4.086616    -3.929844
H    -7.113916    -4.531832    -4.629629
H     0.013665     6.142923     10.772756
O    -0.849247     6.476443     10.522521
H    -0.729907     6.904377     9.655366
H     2.603002     1.466870    -4.085497
O     3.481944     1.817324    -3.845714
H     3.798451     1.303285    -3.072739
H    -6.995755    -0.191234     7.216594
O    -7.502832     0.589354     7.493877
H    -8.123361     0.773196     6.787547
H    -2.773256    -9.878121    -0.799211
O    -2.706505    -8.936952    -0.960316
H    -3.611960    -8.567098    -0.723405
H    -10.048400     3.084776    -4.916986
O    -10.169178     2.168343    -4.634475
H    -10.387045     2.255263    -3.685476
H    -2.092194    -3.018437     4.631041
O    -2.968587    -3.455824     4.699410
H    -2.962346    -4.075159     3.944376
H    -0.213400    -7.986759     2.519706
O     0.612644    -7.778794     2.969492
H     1.330719    -8.078940     2.384939
H     6.679946    -2.391968     6.430263
O     7.127523    -3.107836     5.974303
H     6.492493    -3.838066     5.935786
H    -5.300054    -1.981638     6.949551
O    -5.973687    -1.482798     6.462700
H    -5.955971    -1.861818     5.554363
H     0.862198     3.002461    -7.103588
O     1.778977     2.668852    -7.156701
H     1.764487     1.919668    -7.780536
H    -3.949096     8.773654     6.657544
O    -3.944829     8.769297     5.700191
H    -4.071918     7.841466     5.434291
H    -2.023420     10.303116    -2.750902
O    -2.923732     10.486927    -3.055395
H    -2.848196     11.118769    -3.769779
H     9.389020    -4.086849     4.092218
O     9.104358    -4.769070     4.708419
H     8.673587    -4.298716     5.433394
H    -0.740601    -6.019630    -5.813067
O    -0.040152    -6.587524    -5.475682
H     0.797465    -6.129643    -5.693037
H     1.846320     8.260383     0.665822
O     1.546317     8.581213    -0.213247
H     2.362451     8.615200    -0.741761
H     3.522626     2.892360    -6.643852
O     4.348287     2.600417    -6.231899
H     4.100014     2.329773    -5.322874
H     3.755674     7.099672    -1.220648
O     3.964898     8.034273    -1.435850
H     4.336302     7.974746    -2.328049
H     4.413917    -0.051138    -7.884227
O     4.788189     0.096683    -7.013852
H     4.608456     1.029910    -6.773572
H     6.035230     1.900730    -0.448563
O     6.601935     2.093101    -1.209533
H     7.424900     1.610454    -1.014355
H     6.616532    -8.842882    -1.090896
O     7.524018    -8.781689    -1.499052
H     7.950603    -9.611078    -1.267789
H    -5.307240    -5.795030    -5.392782
O    -5.921599    -5.121902    -5.710685
H    -5.367420    -4.355971    -5.947803
H     0.681185     7.178511     7.602074
O    -0.221211     7.209764     7.959168
H    -0.774485     7.224149     7.140141
H    -8.897702    -2.826304    -4.103839
O    -9.416186    -2.015826    -3.939690
H    -9.126374    -1.353313    -4.570601
H    -2.424647    -5.996648    -2.120893
O    -3.301426    -5.708320    -2.391933
H    -3.487597    -6.084305    -3.277367
H    -2.992934    -5.913715    -5.387999
O    -3.596039    -6.520511    -4.915992
H    -3.117025    -7.341873    -4.746186
H    -1.363105     3.704005    -6.979484
O    -0.825796     2.947285    -6.705481
H    -1.063689     2.161511    -7.254089
H    -0.183353     0.388156    -8.201724
O    -1.079394     0.626911    -7.921237
H    -1.258221     0.105778    -7.122483
H    -10.405727     4.068452    -2.755897
O    -10.477127     3.291388    -2.186062
H    -9.649011     3.263473    -1.675188
H     4.586151     4.058829     1.738848
O     4.374423     3.139306     2.019362
H     5.088661     2.560221     1.740406
H     6.500559     1.354932    -4.187876
O     6.195151     0.732511    -3.493739
H     6.223161     1.230271    -2.651035
H     9.673181    -2.118442    -0.874647
O     9.912961    -1.823657    -1.769686
H     9.051139    -1.600957    -2.176982
H     10.045910    -3.111378    -3.252494
O     9.886255    -3.695114    -4.018591
H     9.457892    -3.129257    -4.681959
H    -7.723221    -8.565131    -1.651084
O    -6.983136    -7.973447    -1.778734
H    -7.357894    -7.059197    -1.772193
H     4.186765     6.048487    -3.808116
O     4.849702     6.748018    -3.723235
H     5.684133     6.291878    -3.582204
H     0.083327    -8.193218    -5.181225
O     0.102354    -9.176127    -5.047921
H     0.256306    -9.541601    -5.919159
H    -2.354236    -8.683289    -2.686287
O    -2.118383    -8.422306    -3.596026
H    -1.472438    -9.043001    -3.952211
H     2.156061    -10.842740    -3.454006
O     2.108493    -9.888495    -3.425996
H     1.326610    -9.615993    -3.956452
H     6.855705     3.287182    -4.547767
O     6.913505     2.607440    -5.247202
H     6.121816     2.742116    -5.790114
H    -3.599077    -3.704087     7.735654
O    -3.709637    -2.917165     7.203516
H    -3.456617    -3.158974     6.286390
H    -0.632117    -3.386638    -6.702474
O     0.000387    -2.657169    -6.709519
H    -0.480046    -1.879416    -6.371320
H     0.617063     0.469142     8.768623
O     0.624148    -0.247760     8.130396
H    -0.298845    -0.533559     8.040607
H    -5.803133     7.365951    -4.268386
O    -6.306521     6.747386    -4.829325
H    -6.597091     6.018600    -4.237226
H    -4.245078     9.098665    -3.280213
O    -4.783548     8.304472    -3.173401
H    -4.378419     7.825331    -2.432432
H    -9.684230     5.805975    -4.669563
O    -10.220483     5.003319    -4.505547
H    -11.099606     5.206091    -4.827222
H     2.769261     6.511073     6.148090
O     1.809221     6.610863     6.243415
H     1.463082     5.698383     6.141967
H     4.826466     8.522433     0.092531
O     5.141620     8.524655     1.014245
H     5.545368     7.659340     1.148342
H     4.126466    -7.473423    -4.316313
O     3.359922    -7.744523    -4.848171
H     3.077704    -8.584080    -4.470281
H     0.389207     8.658183     4.230903
O     1.065763     8.011186     4.006105
H     1.288562     7.519440     4.822447
H     5.254016     4.156996    -3.137732
O     6.215227     4.124396    -3.082517
H     6.420345     3.543491    -2.333036
H    -2.605538    -1.529277     7.585538
O    -2.093269    -0.737269     7.805449
H    -2.718176    -0.108016     8.176100
H    -8.995454     7.944986    -4.173143
O    -8.932022     7.358417    -4.928368
H    -7.975049     7.191164    -5.060546
H     3.496548    -8.995913     1.120187
O     2.819571    -8.371529     1.385584
H     3.290621    -7.561077     1.656583
H     3.601392     8.155069     1.835396
O     2.808825     7.594329     1.946949
H     2.361243     7.833281     2.771396
N     8.805918    -6.530305    -0.831796
H     9.719763    -6.718051    -0.604410
H     8.359038    -7.412090    -0.957393
