33
Coordinates from ORCA-job grain_mol_opt.QMRegion
  H   1.73845718660929      3.40638254510382      6.83583800977527
  O   1.14398723692493      3.93906799132608      6.28125437595009
  H   0.32145118458266      4.07831237663317      6.80213474309330
  H   -1.79205951137142      4.40299519234475      7.57280656138008
  O   -0.87193414236486      4.48695575956491      7.92676818777895
  H   -0.71020212883073      5.44755263782939      8.06560672673088
  H   -0.69250641465841      1.87872907012621      7.68147755885697
  O   -1.32580689293664      1.84307728974674      6.94972134695277
  H   -2.19051767504710      1.66532636247434      7.34296222647765
  H   -2.56375167655931      2.80025311137753     10.61546073567530
  O   -2.33420373540260      1.89611922161508     10.31102593541714
  H   -2.93029173141895      1.74211872437433      9.56326517487876
  H   -0.22196516568056      3.27361706337407      8.91582910684227
  O   0.12477579844387      2.43371650572007      9.31232716155064
  H   -0.67154432211400      2.11762459543915      9.80950897567440
  H   1.93756051502893      1.90990033588661      8.31878964378524
  O   2.73010832882898      2.17521576116421      7.83520293443122
  H   3.18495925605247      1.32671128122571      7.63961692196764
  H   -2.09729653113324      5.15129496856582     10.79422499739743
  O   -2.88049624925549      4.55167811927289     10.94915415701904
  H   -3.19472622102178      4.78205046257961     11.82824952720824
  H   0.08227122287398      5.64233592586523     10.76486583089386
  O   -0.74734491875233      6.15758771381260     10.72867475328973
  H   -0.67857813185518      6.66262477656239      9.90261098353562
  H   0.61288162663528      7.11445945171249      7.67209914186106
  O   -0.30607439587347      7.13175704953118      8.00269157629658
  H   -0.81807469418140      7.15766875326835      7.15527915588757
  H   2.80679603831853      6.57738147790227      6.15465756764732
  O   1.84167599269552      6.62000023943099      6.26564743688179
  H   1.57163479461021      5.68099062576100      6.13919451538487
  O   1.56327234277532      4.47233285727342     10.72436422981664
  H   2.37747638500560      4.67770153003779     10.25475873428540
  H   1.26195847635812      3.62452639243084     10.35044535315468
