9
Coordinates from ORCA-job grain_mol_opt.QMRegion
  H   6.68762026138400     -5.90463021013814      2.68521290221119
  O   6.78362868487891     -5.23115295678550      3.39139277746041
  H   7.64527485580023     -5.36812169130552      3.81251958370416
  H   9.18364861070284     -3.85252276437184      4.04364966216131
  O   9.15804591884302     -4.54661223574152      4.72159176994170
  H   8.66902743673804     -4.11924148135353      5.44353109481094
  O   11.92403815877000     -5.07807103474195      5.49361934559002
  H   10.99658158891016     -4.94433237850383      5.23970657492698
  H   12.10605366576955     -5.98712174797917      5.23877948132193
