36

H    -3.515180     6.389577    -0.521215
O    -3.228961     7.031545    -1.221614
H    -3.055061     7.887610    -0.780387
H     0.191756     5.578262    -0.822958
O     0.707103     6.288753    -1.277647
H     0.862608     7.016291    -0.638119
H     0.295320     6.908439     2.709599
O    -0.012290     6.603289     1.838721
H     0.644745     5.914747     1.594025
H    -0.319858     6.985074    -2.422297
O    -1.090691     7.345610    -2.918557
H    -1.831995     7.185118    -2.292569
H    -0.845292     9.069069    -3.238515
O    -0.805964     10.051817    -3.313631
H    -0.344597     10.328252    -2.507208
H    -1.671913     9.850460    -0.358991
O    -2.606731     9.555860    -0.307744
H    -3.062342     10.093027    -0.985465
H    -2.525371     8.781349     1.326110
O    -2.336926     8.151998     2.039892
H    -1.612726     7.575969     1.744428
H    -2.385709     10.459132    -3.071673
O    -3.331138     10.583621    -2.764263
H    -3.649644     11.398690    -3.156598
H     2.006898     8.201779     0.791344
O     1.681678     8.497897    -0.093946
H     2.485103     8.507359    -0.659390
H     3.810728     7.004054    -1.196011
O     4.037003     7.950347    -1.371044
H     4.416872     7.906253    -2.265831
H     3.737743     8.180476     2.022292
O     2.937391     7.619242     2.124145
H     2.494231     7.855059     2.953411
N    -0.014976     10.444313    -0.515407
H     0.670872     9.760949    -0.276630
H     0.211623     11.223845    -0.001851
