603

H     0.219740     3.038291    -0.687748
O     0.746903     2.380849    -1.191691
H     1.682093     2.497529    -0.900728
H    -0.070213    -1.302321     3.147091
O     0.322986    -0.602695     2.602696
H    -0.153705     0.211410     2.836309
H    -2.382533     2.418152    -0.542567
O    -2.169262     1.946120     0.280327
H    -2.190885     0.998593     0.054964
H    -4.653099     0.557109     2.167711
O    -4.970740    -0.376150     2.180406
H    -4.465698    -0.854125     1.514475
H     0.074916    -0.304760     0.948316
O    -0.115577    -0.065880     0.020144
H     0.221536     0.831802    -0.093480
H    -0.152675    -3.572926     3.774446
O    -0.431253    -2.742047     4.193528
H     0.212807    -2.572451     4.897477
H    -4.872168     2.541182     1.315379
O    -4.234620     2.130148     1.931453
H    -3.390622     2.112435     1.421105
H    -3.227779     3.909500    -2.218306
O    -2.497528     3.304840    -1.981583
H    -2.142133     3.013710    -2.840785
H    -0.116646    -3.800324     0.499717
O     0.223417    -2.982503     0.916979
H    -0.564088    -2.495981     1.228616
H    -2.370943    -1.531564     2.460797
O    -2.179891    -1.997351     1.620026
H    -2.437275    -1.410171     0.890272
H     2.087488    -1.441722    -1.119929
O     2.317057    -1.694371    -0.202228
H     1.526755    -2.121281     0.180415
H    -1.380315     1.830984     1.905900
O    -1.472310     1.432671     2.781603
H    -1.459871     2.144831     3.446958
H     0.222549    -2.699121    -1.573015
O    -0.530495    -2.084518    -1.630968
H    -0.352607    -1.360665    -0.994150
H    -3.425695    -2.917187    -0.403194
O    -2.707128    -3.409278    -0.821981
H    -1.996475    -2.778895    -1.038307
H     2.779486     0.129981     2.936811
O     2.876487    -0.053389     3.898351
H     2.967861     0.839140     4.304083
H    -3.507981     6.389581    -0.551675
O    -3.266009     7.051808    -1.250123
H    -3.126034     7.897647    -0.780435
H     3.914151     0.583451     1.192076
O     2.962825     0.403395     1.304397
H     2.726344    -0.349585     0.725633
H    -5.762945     0.854641    -1.621153
O    -4.852239     1.180058    -1.491740
H    -4.963568     2.009638    -0.981724
H    -1.196530     5.403552     2.204368
O    -1.820404     4.655674     2.085777
H    -1.902224     4.238366     2.948557
H     3.509417     2.764799     0.429962
O     3.262663     2.719925    -0.509742
H     3.596653     1.876873    -0.857602
H     1.505036    -4.694146    -2.251310
O     1.568810    -3.916255    -1.678876
H     2.365269    -3.456687    -2.027427
H    -0.900887    -0.081297    -2.552314
O    -0.265032     0.571158    -2.873982
H    -0.006954     1.154668    -2.136344
H     1.707722    -4.683183    -0.179598
O     1.812660    -5.320503     0.562849
H     1.348780    -6.131139     0.265919
H    -1.210921    -3.260053    -2.886696
O    -1.034342    -3.942714    -3.547250
H    -0.911395    -4.790343    -3.078432
H    -2.773729     3.316137     4.695106
O    -1.792371     3.311584     4.663219
H    -1.502184     2.909873     5.500415
H     0.972150     5.037464     4.075741
O     0.026245     5.270384     4.125488
H    -0.447280     4.467844     4.382433
H    -1.721234    -4.644094    -0.379693
O    -0.957168    -5.185625    -0.093291
H    -1.306780    -5.872172     0.484174
H    -3.894003     5.839789    -2.606867
O    -4.250227     5.007847    -2.936891
H    -4.081793     4.973786    -3.902373
H    -2.425613    -3.682049     1.926481
O    -2.445792    -4.586507     2.301490
H    -1.506735    -4.825588     2.444769
H    -4.678598    -2.968333    -2.914155
O    -3.824969    -3.201920    -3.317658
H    -3.497071    -3.996672    -2.852148
H     0.344225     1.380918     4.611800
O     0.852045     2.140163     4.278781
H     0.899827     2.799065     4.985902
H    -4.643892    -5.159942    -1.586086
O    -5.346410    -4.805522    -1.013916
H    -5.135974    -5.160330    -0.129267
H     2.342033    -6.479966    -4.038711
O     2.003698    -6.150084    -3.186103
H     2.435233    -6.724976    -2.521786
H     0.486226    -3.374867    -4.007958
O     1.289388    -3.007036    -4.429900
H     0.970597    -2.637914    -5.279799
H     1.968862    -1.751293     2.982822
O     2.123648    -2.682111     2.764854
H     1.438570    -2.894876     2.096854
H    -2.995742    -1.799608    -3.220741
O    -2.572050    -0.913594    -3.156284
H    -3.228043    -0.267389    -3.475064
H    -3.173788     4.983469     1.071185
O    -3.954675     5.356529     0.615351
H    -4.370610     5.915974     1.319738
H     0.885080     2.257151     2.587579
O     0.989154     2.251009     1.616473
H     1.717111     1.627846     1.456519
H     0.213314     5.663061    -0.757956
O     0.742961     6.317133    -1.268115
H     0.881624     7.121801    -0.717419
H     0.358621     7.040419     2.589110
O    -0.002018     6.659218     1.771402
H     0.662760     5.989275     1.511219
H    -2.473809     0.222328     3.331914
O    -2.697148    -0.592064     3.835597
H    -1.938417    -0.631995     4.459506
H    -0.893396     0.558853     6.019446
O    -0.618046     0.039126     5.245558
H     0.093789    -0.565311     5.534166
H     0.713346    -4.991168     1.977321
O     0.169074    -5.099946     2.780459
H     0.311832    -6.020771     3.052952
H    -2.115946    -8.081257     0.438204
O    -1.794443    -7.593535     1.223926
H    -2.581278    -7.281761     1.678706
H    -0.351944     6.879201    -2.236633
O    -1.108548     7.281647    -2.737887
H    -1.883151     7.165671    -2.139367
H    -1.094908     4.316305     0.568203
O    -0.722354     4.374309    -0.328408
H    -1.432233     4.135448    -0.958622
H    -4.400780     2.756864     3.493970
O    -4.400738     2.926810     4.458590
H    -4.486404     2.043858     4.867327
H     2.023942    -3.581003     4.244532
O     1.957874    -4.053612     5.097284
H     2.463741    -3.517566     5.729459
H     4.695746    -3.196484     0.845392
O     4.537725    -3.119867    -0.121593
H     3.679363    -2.642076    -0.206492
H    -2.707794    -0.740334    -1.362241
O    -3.035676    -0.469483    -0.488447
H    -3.835802     0.056974    -0.696482
H    -1.597062    -0.756038    -4.638426
O    -1.086665    -0.540178    -5.440475
H    -0.377771     0.055662    -5.153550
H     1.813434    -1.713547    -3.376847
O     1.907134    -0.964344    -2.756537
H     1.127473    -0.390238    -2.884448
H     3.667173    -3.122894     2.554503
O     4.626044    -3.353006     2.482714
H     4.679491    -4.313142     2.610242
H     3.425394    -6.122003     3.126112
O     3.783271    -5.921331     2.226632
H     3.047297    -5.574755     1.682387
H    -3.322124     1.619773    -4.186203
O    -4.167724     1.147922    -3.998139
H    -4.387503     1.295450    -3.042319
H    -5.064552     4.157804     0.052052
O    -5.503992     3.292108    -0.051561
H    -6.433426     3.412920    -0.336164
H     6.749385    -1.186061    -1.350922
O     5.974363    -1.035106    -0.803390
H     5.554927    -1.902617    -0.605332
H     4.608682    -3.169586    -2.464859
O     3.742485    -2.996347    -2.883711
H     3.746542    -3.616556    -3.638771
H     4.433178    -2.296010     5.627366
O     4.087820    -2.761367     6.419473
H     4.421994    -3.666746     6.338536
H    -0.744300     6.342938     5.070775
O    -1.341334     6.919153     5.607853
H    -1.353310     7.796348     5.166246
H     4.715302    -0.136008    -1.460743
O     3.949439     0.406881    -1.727619
H     3.257111    -0.194484    -2.056170
H    -0.970640     4.467430    -3.850599
O    -1.627745     5.103965    -4.182693
H    -1.419507     5.948253    -3.727648
H     0.720046     3.240056    -2.569227
O     0.696452     3.640499    -3.475823
H     0.682768     2.849364    -4.029197
H    -5.380755    -5.182620     1.777673
O    -4.683989    -5.778151     1.423777
H    -3.843624    -5.363389     1.696500
H     7.901422    -1.695560    -4.020719
O     7.641475    -1.381649    -3.121926
H     7.156226    -0.537452    -3.279262
H     3.719690    -5.072273    -5.286630
O     4.481430    -4.699268    -4.804111
H     4.864222    -5.410819    -4.257605
H    -3.782143     0.026454     4.922712
O    -4.383325     0.491228     5.554138
H    -5.045147    -0.165867     5.844593
H     3.471552    -5.942718    -0.516427
O     4.344764    -5.696143    -0.833413
H     4.422198    -4.734154    -0.688543
H     5.023412    -0.338627    -4.151902
O     4.485039    -1.046238    -4.544468
H     4.158571    -1.631996    -3.828250
H    -1.179657     1.466510    -3.879884
O    -1.784617     2.134418    -4.266100
H    -1.479665     2.352652    -5.168768
H     4.895135    -6.323876    -2.309791
O     5.229710    -6.648392    -3.174923
H     6.046329    -7.131066    -2.986499
H     8.753243    -5.098984    -2.904071
O     8.059787    -5.515569    -2.347607
H     8.093638    -6.473020    -2.449214
H     2.357496     4.721294     0.455345
O     1.775010     4.703246     1.223767
H     1.416393     3.783583     1.300370
H    -4.414929    -2.624872     4.217811
O    -5.308042    -2.284467     4.013326
H    -5.169096    -1.503219     3.438437
H    -5.839990    -3.183893     1.300638
O    -6.304559    -3.740679     1.967872
H    -6.117761    -3.305424     2.818914
H     1.688722     3.470126     6.862964
O     1.067559     3.986004     6.327417
H     0.283731     4.140789     6.897532
H     5.003442    -2.171723     3.622700
O     5.023472    -1.453413     4.286700
H     4.212484    -0.896274     4.128733
H     2.386217    -5.576028     4.839051
O     2.765622    -6.460260     4.579394
H     2.020164    -7.040924     4.404264
H     2.278343    -4.513778    -6.790365
O     2.107600    -5.001687    -5.974862
H     1.842344    -4.310693    -5.319757
H     6.448310    -4.107588    -0.493810
O     7.200406    -4.511052    -0.029230
H     7.708640    -4.934683    -0.748838
H    -1.723116     4.495898     7.694288
O    -0.824763     4.592891     8.081227
H    -0.642951     5.551935     8.106269
H    -5.076008     5.708060    -5.613483
O    -4.465717     4.945348    -5.637537
H    -3.710390     5.167498    -6.194056
H     3.309224    -2.526066    -8.434768
O     3.217889    -3.056353    -7.632312
H     4.094171    -3.035989    -7.202537
H    -0.630989     8.835771    -2.285672
O    -0.510364     9.661356    -1.760552
H     0.252817     9.486230    -1.186074
H     2.066925    -0.911095     5.212556
O     1.492353    -1.436753     5.798320
H     1.584128    -1.091558     6.695839
H     5.227772    -2.026563    -5.685933
O     5.573692    -2.792917    -6.207473
H     5.298262    -3.582913    -5.690532
H     5.691408    -5.218571     4.693726
O     5.167547    -5.132844     5.519264
H     4.445586    -5.764154     5.432507
H    -3.975148     1.155139     6.995061
O    -3.784155     1.630555     7.839279
H    -4.660345     2.017435     8.098243
H    -1.825229     9.621042    -0.753992
O    -2.686589     9.496370    -0.279364
H    -3.295809     10.124742    -0.670697
H    -5.924162     4.702983    -2.955249
O    -6.833169     4.582553    -3.299525
H    -6.741568     3.881724    -3.977457
H     0.100532    -7.060179    -1.147340
O     0.562929    -7.496395    -0.398745
H    -0.117759    -7.690857     0.248676
H    -7.615662     3.806073    -1.992996
O    -7.879542     3.219000    -1.253505
H    -7.737026     2.310471    -1.593243
H     3.970120    -0.893867     6.991270
O     3.979740     0.070260     6.981663
H     4.793569     0.359253     6.552380
H     2.242582     5.816172    -1.161399
O     3.170002     5.512941    -1.011908
H     3.366312     4.902324    -1.746255
H     6.554220    -5.934059     0.681705
O     6.183468    -6.670082     1.214201
H     5.278952    -6.391823     1.439694
H    -3.866530     4.738395     7.769256
O    -3.298896     4.274709     7.111686
H    -3.494161     3.331628     7.221574
H     5.764810    -7.949018     0.145696
O     5.477652    -8.635539    -0.492784
H     4.649431    -8.309252    -0.888332
H    -0.558936     2.046919     7.688619
O    -1.190612     1.982537     6.952158
H    -2.060169     1.842500     7.346975
H    -6.373295    -0.108226     1.045482
O    -6.690784    -0.193063     0.131820
H    -7.610412    -0.460952     0.147378
H    -5.362480    -3.052293    -0.603412
O    -5.109697    -2.350446     0.022508
H    -5.679156    -1.577009    -0.165264
H     4.337417     5.577641     0.328231
O     4.668895     5.676115     1.234469
H     3.974465     6.188685     1.684566
H    -9.029104    -1.728426    -2.276070
O    -8.482138    -1.528148    -1.489081
H    -8.612200    -2.264339    -0.851522
H    -5.493922     3.484240    -5.544778
O    -6.012836     2.774979    -5.131032
H    -5.349220     2.188147    -4.714734
H     3.204149    -0.890103    -5.650663
O     2.349169    -1.005669    -6.119698
H     2.432355    -1.855281    -6.592936
H     8.138217    -1.356092    -6.016173
O     8.143662    -2.219742    -5.559308
H     7.287857    -2.619037    -5.811955
H     7.648372     0.985747    -6.297342
O     7.458948     0.137781    -6.710975
H     6.477996     0.087904    -6.748744
H    -7.854962    -3.678024     0.910084
O    -8.531642    -3.570212     0.224180
H    -8.433353    -4.329838    -0.377189
H    -2.387625     8.745247     1.283805
O    -2.238657     8.156579     2.037444
H    -1.468852     7.602901     1.815602
H    -4.430414     6.446762     3.484405
O    -4.598690     6.872415     2.627432
H    -3.834666     7.457821     2.488594
H     3.454311     3.371308    -3.521850
O     3.377973     4.358384    -3.459080
H     2.415439     4.454471    -3.525002
H    -6.098660    -1.592649    -3.458715
O    -6.183329    -2.172027    -2.674951
H    -6.968134    -1.864080    -2.167818
H     6.471708     1.046236     4.749222
O     6.076671     1.585253     5.451335
H     6.266184     2.503855     5.161011
H     1.364640     1.570590    -5.835450
O     1.193773     0.998894    -5.055080
H     1.575048     0.138006    -5.338850
H    -2.495122     2.971498     10.475328
O    -2.283429     2.063657     10.202337
H    -2.880005     1.864805     9.468827
H     7.632726    -0.503065     3.095755
O     6.882749     0.073449     3.261884
H     6.189186    -0.525806     3.640797
H    -5.655857    -8.042224    -0.716283
O    -4.922037    -8.111632    -0.068698
H    -4.926190    -7.294546     0.453592
H    -5.156568    -0.107303    -4.729127
O    -5.773494    -0.818643    -4.970921
H    -6.610712    -0.375786    -5.170473
H     1.921144    -0.192594    -7.514267
O     1.728812     0.289010    -8.354504
H     2.294253    -0.125736    -9.011355
H     4.901596    -1.394588    -9.298052
O     3.977461    -1.163317    -9.581599
H     3.958482    -1.282109    -10.530595
H     7.564145    -2.575800     4.211816
O     7.712676    -2.612117     3.252574
H     7.219102    -3.402640     2.980117
H     6.720054    -5.899232     2.695234
O     6.781036    -5.223670     3.396005
H     7.655822    -5.309814     3.816071
H    -1.804749     8.955445     3.489059
O    -1.558474     9.258879     4.388329
H    -2.408052     9.393567     4.841606
H    -7.365014     1.582957    -5.270027
O    -7.940896     0.839572    -5.025546
H    -8.842506     1.240269    -4.951685
H     6.955125    -1.088219    -8.393703
O     6.371071    -1.807207    -8.658176
H     6.141996    -2.257918    -7.827049
H    -1.313088     5.889864    -7.115814
O    -1.976583     5.298555    -6.749931
H    -1.761667     5.273805    -5.768630
H    -0.001720     3.316379     9.019730
O     0.193664     2.396324     9.275176
H    -0.606026     2.133299     9.780127
H     6.770459    -2.784240    -2.694381
O     6.237808    -3.527659    -2.355309
H     6.706411    -4.339187    -2.599554
H    -4.059615    -3.062632    -4.955142
O    -4.210649    -2.949748    -5.920354
H    -4.757832    -2.156666    -5.977966
H     1.977360     2.186879     8.465888
O     2.642708     2.298037     7.777029
H     3.063977     1.427209     7.662944
H    -6.899681    -5.187514    -1.412892
O    -7.814884    -5.456266    -1.660360
H    -7.946421    -5.053428    -2.543514
H    -3.820207     5.266639     5.686191
O    -3.785337     6.034677     5.095076
H    -2.851395     6.328475     5.191113
H    -7.869076     0.103300    -1.986372
O    -7.376610     0.825611    -2.398840
H    -7.603599     0.815882    -3.352439
H     5.849043     0.126828     0.420684
O     5.626624     0.849059     1.040476
H     6.134688     0.653659     1.854863
H    -6.214120     3.325140     7.380295
O    -6.088508     2.806556     8.209108
H    -6.689820     2.046209     8.119657
H     2.281879    -8.071901    -0.840618
O     2.959772    -8.059743    -1.536013
H     2.735427    -8.773994    -2.149167
H    -2.725163    -3.953156    -6.206044
O    -1.971679    -4.519300    -5.973205
H    -1.697881    -4.228929    -5.074968
H    -5.637946     3.774809     5.294302
O    -6.287514     4.171892     5.910572
H    -6.123436     5.115849     5.896878
H    -1.009283    -7.108316    -3.167763
O    -0.536930    -6.438606    -2.639247
H     0.371427    -6.370938    -3.018197
H     4.448384     2.016121     5.135268
O     3.507277     2.256274     5.012755
H     3.121103     2.273825     5.893839
H     4.113960     4.657575     6.306640
O     4.198250     5.386941     5.688111
H     3.631116     5.147816     4.916472
H     2.773169     3.619169     3.925402
O     2.597705     4.559532     3.758985
H     2.479714     4.658663     2.792527
H     9.408575     0.203978    -1.054403
O     8.600316     0.367187    -0.564676
H     8.423442    -0.450617    -0.070179
H    -2.104182     5.330075     10.643201
O    -2.827254     4.702247     10.873230
H    -3.047641     4.880339     11.787754
H     7.980545    -3.014847     0.341069
O     8.401727    -2.168323     0.596663
H     8.334475    -2.163416     1.558920
H     5.379481     3.663915     3.533209
O     6.035176     3.928070     4.200177
H     5.622707     4.646563     4.701628
H    -4.210852     5.034775     9.773088
O    -4.842169     5.186300     9.049650
H    -5.455121     4.438588     9.046174
H    -6.996444    -3.463707    -3.502601
O    -7.616630    -4.075194    -3.951924
H    -7.094956    -4.517814    -4.653212
H     0.025173     6.136044     10.767499
O    -0.838644     6.468163     10.518546
H    -0.720819     6.898594     9.652436
H     2.672341     1.404180    -4.070113
O     3.545301     1.774373    -3.836283
H     3.854743     1.272035    -3.045561
H    -6.976034    -0.202757     7.202439
O    -7.484051     0.576484     7.481650
H    -8.105581     0.760739     6.776310
H    -2.742007    -9.864515    -0.837583
O    -2.677305    -8.922986    -0.997533
H    -3.583305    -8.555350    -0.758610
H    -10.042391     3.094630    -4.922661
O    -10.161111     2.177357    -4.641807
H    -10.378767     2.262358    -3.692538
H    -2.069105    -3.015401     4.607149
O    -2.944550    -3.454574     4.675169
H    -2.937980    -4.072525     3.919086
H    -0.181857    -7.976792     2.483161
O     0.644011    -7.767028     2.932319
H     1.362993    -8.064311     2.347091
H     6.702027    -2.378467     6.403440
O     7.151119    -3.088851     5.940486
H     6.520296    -3.822921     5.901526
H    -5.277151    -1.989600     6.930432
O    -5.951791    -1.490760     6.444988
H    -5.934457    -1.868011     5.535981
H     0.759784     2.903967    -7.153459
O     1.719386     2.674521    -7.212799
H     1.749875     1.912488    -7.827510
H    -3.945555     8.768689     6.660971
O    -3.941140     8.766527     5.703626
H    -4.067484     7.839329     5.435417
H    -2.029608     10.320140    -2.750558
O    -2.932237     10.508196    -3.045048
H    -2.859659     11.132905    -3.766259
H     9.409113    -4.068088     4.061003
O     9.126769    -4.745842     4.682798
H     8.696809    -4.272861     5.406270
H    -0.719150    -5.991378    -5.844673
O    -0.017193    -6.558665    -5.509272
H     0.819467    -6.098927    -5.725621
H     1.847510     8.278123     0.663592
O     1.545240     8.597681    -0.214816
H     2.360338     8.638394    -0.744364
H     3.544430     2.899969    -6.647141
O     4.376417     2.617648    -6.247538
H     4.131941     2.279767    -5.358706
H     3.757677     7.127129    -1.223844
O     3.963078     8.062171    -1.437879
H     4.341743     8.005761    -2.327291
H     4.423351    -0.010091    -7.906397
O     4.798285     0.136541    -7.035983
H     4.618901     1.068158    -6.792529
H     6.046500     1.930137    -0.466142
O     6.612404     2.121580    -1.228026
H     7.436611     1.642007    -1.032167
H     6.688319    -8.435141    -1.595836
O     7.325727    -8.225232    -2.331391
H     7.692727    -9.059843    -2.617854
H    -5.286298    -5.776335    -5.420478
O    -5.901817    -5.103447    -5.736471
H    -5.349312    -4.336072    -5.972565
H     0.688322     7.179978     7.598637
O    -0.213880     7.208261     7.956351
H    -0.767750     7.223965     7.137722
H    -8.881369    -2.816269    -4.122819
O    -9.400853    -2.007045    -3.956083
H    -9.113116    -1.342517    -4.585825
H    -2.401911    -5.980047    -2.150246
O    -3.278588    -5.691568    -2.421251
H    -3.465001    -6.066858    -3.306905
H    -2.971502    -5.891164    -5.418024
O    -3.572919    -6.499684    -4.946377
H    -3.092783    -7.320817    -4.778791
H    -1.386196     3.699501    -6.972992
O    -0.898048     2.877076    -6.715533
H    -1.145923     2.131682    -7.314171
H    -0.177527     0.419754    -8.220474
O    -1.076732     0.648075    -7.942914
H    -1.251531     0.129546    -7.142048
H    -10.400199     4.073014    -2.759080
O    -10.469582     3.294391    -2.191048
H    -9.641276     3.267493    -1.680454
H     4.593317     4.080890     1.726432
O     4.382335     3.159118     2.001096
H     5.100174     2.583476     1.724596
H     6.508243     1.395133    -4.209481
O     6.199608     0.772333    -3.517154
H     6.232571     1.266301    -2.672271
H     9.643933    -2.233824    -0.912914
O     9.922366    -2.019909    -1.812268
H     9.123461    -1.679918    -2.257046
H     9.983212    -3.329407    -3.081368
O     9.716245    -3.981032    -3.756716
H     9.325129    -3.472991    -4.478014
H    -7.694525    -8.558757    -1.683257
O    -6.955688    -7.965304    -1.810018
H    -7.332367    -7.051832    -1.801109
H     4.395302     6.266797    -3.930209
O     5.087345     6.903925    -3.707257
H     5.806395     6.335231    -3.402448
H     0.109063    -8.165741    -5.217231
O     0.131591    -9.148515    -5.085009
H     0.282972    -9.512907    -5.957156
H    -2.327205    -8.665040    -2.722255
O    -2.090650    -8.401319    -3.631169
H    -1.444779    -9.021237    -3.988737
H     2.188435    -10.814041    -3.492582
O     2.143584    -9.859410    -3.468960
H     1.359297    -9.587977    -3.996488
H     6.861020     3.326690    -4.564411
O     6.917533     2.648736    -5.266180
H     6.126824     2.785355    -5.808347
H    -3.572692    -3.710586     7.711638
O    -3.684771    -2.922754     7.181163
H    -3.432135    -3.162290     6.263416
H    -0.616123    -3.356723    -6.728659
O     0.014509    -2.625456    -6.734359
H    -0.468879    -1.850262    -6.394566
H     0.636982     0.467662     8.750629
O     0.644694    -0.247410     8.110334
H    -0.277858    -0.534863     8.021141
H    -5.801733     7.381771    -4.270411
O    -6.304339     6.761786    -4.831133
H    -6.594664     6.033978    -4.238384
H    -4.249241     9.112686    -3.279979
O    -4.789871     8.320507    -3.167444
H    -4.377938     7.839555    -2.431813
H    -9.682656     5.815826    -4.668772
O    -10.217681     5.011829    -4.506505
H    -11.097098     5.214325    -4.827527
H     2.776808     6.519477     6.141639
O     1.816704     6.616828     6.237857
H     1.472113     5.704008     6.134773
H     4.825617     8.548039     0.089196
O     5.141552     8.547904     1.010816
H     5.547862     7.683447     1.142036
H     4.153694    -7.426346    -4.336605
O     3.396053    -7.709733    -4.880268
H     3.114081    -8.550551    -4.505026
H     0.391518     8.666543     4.229940
O     1.068780     8.020742     4.003666
H     1.292873     7.528203     4.819072
H     5.260369     4.191325    -3.152218
O     6.221805     4.156461    -3.097298
H     6.427152     3.576688    -2.347286
H    -2.582989    -1.533840     7.565588
O    -2.071925    -0.741230     7.786113
H    -2.697436    -0.114069     8.159319
H    -8.996060     7.956012    -4.169945
O    -8.932983     7.369071    -4.924911
H    -7.975796     7.204851    -5.059574
H     3.528296    -8.978814     1.096008
O     2.851945    -8.345719     1.342304
H     3.327009    -7.541231     1.623865
H     3.603098     8.174034     1.832042
O     2.812987     7.609839     1.944078
H     2.364316     7.847870     2.768216
N     1.055463     5.748032    -6.131112
H     1.630257     5.119873    -6.581038
H     0.747989     5.266375    -5.354341
