21

H     7.837233    -1.657424    -4.107576
O     7.630742    -1.324513    -3.201544
H     7.098494    -0.495694    -3.340880
H     9.443858     0.659500    -0.661442
O     8.526994     0.635070    -0.326098
H     8.400311    -0.257021     0.029302
H     7.940945    -3.054605     0.362773
O     8.389224    -2.210851     0.596570
H     8.346567    -2.220457     1.564930
H     5.864060     1.967932    -0.606080
O     6.518691     2.163140    -1.289185
H     7.317089     1.681092    -0.985388
H     9.615420    -2.227250    -0.956154
O     9.890509    -2.033717    -1.869866
H     9.085562    -1.627748    -2.268809
H     9.921168    -3.410909    -3.195966
O     9.723800    -4.055767    -3.901299
H     9.235115    -3.551826    -4.566636
N     11.097239     0.401524    -1.427227
H     10.856328    -0.515228    -1.684709
H     11.231198     0.864777    -2.259378
