18
Coordinates from ORCA-job grain_mol_opt.QMRegion
  H   -1.67840261139494      4.51544928823999      7.73688141687133
  O   -0.78912984669167      4.60703756756334      8.15005257248762
  H   -0.55263288247278      5.55168097327132      8.14913614256700
  H   -3.90430668008787      4.63932722543213      7.79005942585244
  O   -3.29172586733158      4.22551653472206      7.14172544897470
  H   -3.48219640374494      3.27395148104112      7.22995263320540
  H   -2.11937640128588      5.20208275524460     10.49118101333312
  O   -2.81207977538165      4.62012570961986     10.84910637953919
  H   -3.25786660440221      5.18635481239348     11.49763919656346
  H   -4.24009840707585      4.77333395493911      9.77678991971336
  O   -4.93137321095948      5.05992448055731      9.13945468306422
  H   -5.53492209614910      4.30121096426698      9.05988992952868
  H   -0.69891576187870      7.28987803510456     10.98795275136116
  O   -1.36081741356840      7.05517542127886     10.33046333508364
  H   -0.93022233872769      7.25462733126585      9.47421273679661
  O   -4.19826333436234      7.04438704851898     11.39807814191821
  H   -4.78101293561849      6.77238575432333     10.67559122697315
  H   -3.41187345500354      7.38737302296246     10.94866879711355
