33

H     3.621725    -2.983267     2.487224
O     4.586306    -3.216990     2.429427
H     4.587088    -4.175249     2.575826
H     3.327214    -6.061124     3.041295
O     3.759511    -5.823051     2.178707
H     3.041074    -5.493662     1.596629
H     3.441841    -5.883097    -0.759397
O     4.362250    -5.632319    -0.873330
H     4.382686    -4.657329    -0.755074
H     2.400838    -5.521615     4.824043
O     2.748927    -6.425504     4.566625
H     1.949349    -6.952629     4.434718
H     5.690945    -5.262891     4.746192
O     5.258723    -5.158283     5.624353
H     4.513685    -5.762675     5.638288
H     6.632970    -5.897047     0.688089
O     6.256624    -6.630201     1.234533
H     5.330002    -6.341511     1.358303
H     5.754511    -7.951381     0.046028
O     5.510161    -8.698029    -0.533337
H     4.657549    -8.430800    -0.925426
H     6.805943    -5.794978     2.690227
O     6.835106    -5.178003     3.447480
H     7.726859    -5.254453     3.850593
H    -0.372999    -7.833775     2.472437
O     0.448304    -7.762677     2.984811
H     1.171188    -8.052896     2.383451
H     3.361551    -8.896027     1.907995
O     2.664045    -8.399661     1.447167
H     3.051569    -7.509619     1.458249
N     4.983116    -8.798941     3.174216
H     4.707876    -8.176966     3.856632
H     5.677534    -8.331514     2.692506
