21

H     5.699353    -5.326372     4.626180
O     5.124506    -5.182972     5.408850
H     4.389046    -5.802293     5.316227
H     6.451847    -5.932390     0.632973
O     6.113952    -6.658394     1.204744
H     5.205559    -6.377597     1.430585
H     7.277103    -2.562604     4.162894
O     7.740773    -2.718171     3.317996
H     7.425577    -3.615045     3.080333
H     6.775651    -5.939320     2.634359
O     6.984535    -5.368212     3.405962
H     7.819910    -5.727378     3.790892
H     6.412297    -2.281472     6.443075
O     7.006622    -2.916430     6.027567
H     6.501611    -3.744520     6.047768
H     9.235103    -3.116734     4.250369
O     9.864606    -3.434466     4.937953
H     9.390497    -3.230955     5.753528
N     9.354150    -6.065231     4.529638
H     10.014932    -6.420691     3.928588
H     9.654168    -5.139222     4.720925
