39
Coordinates from ORCA-job grain_mol_opt.QMRegion
  H   1.69843934626101     -4.67857269119098     -0.28185871330816
  O   1.79732339382914     -5.34455547744629      0.44241677600933
  H   1.28521024201918     -6.12057807696705      0.15475816879990
  H   2.35376694769324     -6.40424744377535     -4.12946420572882
  O   2.01550629184313     -6.10500541495262     -3.26837534223850
  H   2.45215295731650     -6.70292107215761     -2.61848637870848
  H   -2.33476614062153     -7.93971721751258      0.59139502963693
  O   -1.91975083486435     -7.45366738499957      1.33022215283286
  H   -2.65037456770784     -7.03152727771836      1.79786032706890
  H   -0.02473506216420     -7.15054214463284     -1.22858775172928
  O   0.35289033199411     -7.60832899079503     -0.42453404456622
  H   -0.34304381904643     -7.49739824611551      0.23810735159445
  H   2.65242657672275     -8.11673879701212     -0.74281280972456
  O   3.03838834868456     -8.00971121896348     -1.62813859806664
  H   2.69456107572671     -8.74265939393009     -2.18205571539265
  H   -0.99369385715101     -7.10673492662249     -3.22745130984626
  O   -0.50670232618068     -6.46016672834849     -2.67353424689636
  H   0.38282683120456     -6.35944171834992     -3.10289980008820
  H   -2.46093827486257     -9.69792621109788     -0.84475973535080
  O   -2.64855192344311     -8.77651296391904     -1.05455305330843
  H   -3.60214095655913     -8.62234218588545     -0.80409254820735
  H   -0.17043113333682     -8.08040219215198      2.60794255946554
  O   0.68334563258484     -7.82271858090658      2.97256355695177
  H   1.36328824450253     -8.15410317635399      2.36143175181874
  H   0.12340081154642     -8.11595468117159     -5.44667556702022
  O   0.16525568174937     -9.09272197911652     -5.29106874256249
  H   0.43068399259982     -9.46154090315967     -6.13830753117002
  H   -2.36190570730561     -8.71997319648754     -2.92095191164965
  O   -2.06277512715108     -8.37247637866882     -3.78217291743546
  H   -1.53150880039420     -9.03905564414072     -4.23506921656159
  H   1.23544316705335    -10.22772355252959     -2.54334249263700
  O   1.86949144818961     -9.91606123302243     -3.21571319437180
  H   1.30051339837720     -9.59991542065138     -3.94579572529476
  H   3.71066826698401     -8.95270460413126      1.15600159972324
  O   2.97583741501825     -8.33698871687833      1.24302878759454
  H   3.40784016579228     -7.50208091849881      1.54905738926563
  O   0.06047744395619    -10.24648906522386     -1.04495371935768
  H   0.45713512258427    -10.76864524990545     -0.34158927941516
  H   0.19730483828714     -9.30204324574187     -0.77859048322544
