603

H     0.207339     3.026187    -0.672632
O     0.730366     2.357548    -1.165260
H     1.668984     2.485967    -0.890597
H    -0.074297    -1.310123     3.158493
O     0.319132    -0.610474     2.614263
H    -0.158526     0.203352     2.846550
H    -2.392246     2.407043    -0.532078
O    -2.182264     1.936476     0.292031
H    -2.199160     0.988583     0.067346
H    -4.659653     0.545540     2.184498
O    -4.977300    -0.387673     2.197353
H    -4.472047    -0.865666     1.531545
H     0.068000    -0.312695     0.958912
O    -0.128036    -0.076733     0.031506
H     0.210837     0.820117    -0.088860
H    -0.154290    -3.580207     3.786793
O    -0.433344    -2.749494     4.205714
H     0.211880    -2.578995     4.908638
H    -4.881593     2.528885     1.331709
O    -4.242853     2.119074     1.947008
H    -3.399636     2.101022     1.435072
H    -3.240484     3.894410    -2.209040
O    -2.503416     3.297063    -1.977445
H    -2.144258     3.009032    -2.836723
H    -0.122909    -3.809034     0.511332
O     0.217512    -2.991882     0.929284
H    -0.569671    -2.504585     1.240384
H    -2.375633    -1.541167     2.474895
O    -2.186056    -2.007620     1.634220
H    -2.443803    -1.420748     0.904315
H     2.077727    -1.449393    -1.112114
O     2.308667    -1.702595    -0.194610
H     1.518687    -2.129048     0.188890
H    -1.386900     1.821448     1.916885
O    -1.479402     1.423717     2.792762
H    -1.465297     2.135968     3.457919
H     0.213165    -2.708424    -1.562047
O    -0.542158    -2.096576    -1.617688
H    -0.363013    -1.369888    -0.983989
H    -3.433454    -2.928775    -0.386687
O    -2.715755    -3.421209    -0.806373
H    -2.005419    -2.790630    -1.024313
H     2.776739     0.122783     2.942954
O     2.879280    -0.060657     3.904338
H     2.966410     0.832797     4.310024
H    -3.521463     6.377260    -0.541292
O    -3.282250     7.039535    -1.241554
H    -3.140389     7.884677    -0.771340
H     3.905346     0.577931     1.195092
O     2.954916     0.395458     1.311637
H     2.717647    -0.356148     0.731303
H    -5.775223     0.840582    -1.603234
O    -4.864723     1.167450    -1.476365
H    -4.975698     1.996152    -0.965187
H    -1.206754     5.393803     2.214229
O    -1.831840     4.646812     2.097092
H    -1.910594     4.228499     2.959725
H     3.498855     2.756958     0.433852
O     3.251225     2.713621    -0.505464
H     3.584053     1.870917    -0.855380
H     1.495028    -4.703087    -2.241605
O     1.559959    -3.926155    -1.668192
H     2.354834    -3.465109    -2.018960
H    -0.915523    -0.089723    -2.542490
O    -0.280452     0.561988    -2.866292
H    -0.020471     1.144669    -2.129404
H     1.701837    -4.691097    -0.169827
O     1.808367    -5.328653     0.572509
H     1.343749    -6.139085     0.276557
H    -1.221612    -3.270515    -2.873715
O    -1.047575    -3.954404    -3.533857
H    -0.922402    -4.801092    -3.064237
H    -2.778430     3.306920     4.707974
O    -1.797218     3.303496     4.674523
H    -1.505226     2.901998     5.511294
H     0.965213     5.030586     4.082038
O     0.019133     5.263171     4.132954
H    -0.453236     4.460296     4.391089
H    -1.727759    -4.654350    -0.365214
O    -0.963294    -5.195912    -0.079748
H    -1.312083    -5.881963     0.498709
H    -3.908718     5.828916    -2.596459
O    -4.259585     4.994936    -2.926457
H    -4.103813     4.959858    -3.894472
H    -2.429879    -3.691917     1.941614
O    -2.448955    -4.596388     2.316851
H    -1.509466    -4.834347     2.459122
H    -4.690437    -2.982682    -2.895459
O    -3.837900    -3.216286    -3.300996
H    -3.507755    -4.009768    -2.834974
H     0.340404     1.373296     4.621582
O     0.847480     2.132681     4.287672
H     0.896047     2.792011     4.994291
H    -4.652239    -5.172907    -1.566964
O    -5.354410    -4.818989    -0.993996
H    -5.142166    -5.173005    -0.109454
H     2.330938    -6.488834    -4.029523
O     1.993752    -6.159998    -3.176125
H     2.427471    -6.733701    -2.512548
H     0.472430    -3.385219    -3.997887
O     1.275802    -3.019238    -4.420611
H     0.957162    -2.647338    -5.269277
H     1.964192    -1.757560     2.990431
O     2.120318    -2.688162     2.772564
H     1.434425    -2.902071     2.105769
H    -3.009331    -1.812970    -3.205402
O    -2.586635    -0.926765    -3.140538
H    -3.241646    -0.280781    -3.460553
H    -3.184826     4.973017     1.082371
O    -3.966045     5.346682     0.627148
H    -4.381431     5.904918     1.332938
H     0.879141     2.249253     2.597698
O     0.980704     2.244028     1.626481
H     1.707754     1.620745     1.463164
H     0.197665     5.652049    -0.753219
O     0.719767     6.313578    -1.262048
H     0.861949     7.113442    -0.706358
H     0.348465     7.031988     2.595660
O    -0.013218     6.651564     1.778028
H     0.650667     5.980512     1.517405
H    -2.478462     0.212843     3.345462
O    -2.700786    -0.601198     3.850111
H    -1.940817    -0.640340     4.472791
H    -0.894219     0.551469     6.030858
O    -0.620139     0.031738     5.256626
H     0.093061    -0.571996     5.544475
H     0.709821    -4.998615     1.988290
O     0.167130    -5.108007     2.792368
H     0.310764    -6.028493     3.064887
H    -2.119107    -8.091719     0.455025
O    -1.796756    -7.603991     1.240380
H    -2.583163    -7.291878     1.695690
H    -0.370581     6.858869    -2.321156
O    -1.116570     7.278913    -2.821088
H    -1.906901     7.153159    -2.257816
H    -1.107764     4.305851     0.578338
O    -0.734345     4.366391    -0.317617
H    -1.440714     4.124701    -0.950298
H    -4.406828     2.746023     3.509380
O    -4.406036     2.916696     4.473857
H    -4.489934     2.033808     4.883207
H     2.019330    -3.589040     4.252249
O     1.951851    -4.064851     5.102674
H     2.465193    -3.531989     5.735558
H     4.690038    -3.200570     0.849674
O     4.529095    -3.127178    -0.116638
H     3.670945    -2.648667    -0.201043
H    -2.718229    -0.751726    -1.347537
O    -3.046085    -0.481630    -0.473340
H    -3.846147     0.044636    -0.680709
H    -1.609918    -0.765742    -4.626204
O    -1.101969    -0.550681    -5.429749
H    -0.392372     0.045919    -5.144130
H     1.800217    -1.721480    -3.369198
O     1.892492    -0.974785    -2.746051
H     1.115554    -0.397146    -2.877534
H     3.661255    -3.126723     2.559914
O     4.620793    -3.354978     2.490531
H     4.675437    -4.315736     2.613624
H     3.420584    -6.127491     3.132272
O     3.778966    -5.926987     2.233984
H     3.043535    -5.581022     1.688504
H    -3.336208     1.607143    -4.174278
O    -4.181455     1.136873    -3.984112
H    -4.399640     1.282958    -3.027623
H    -5.076639     4.145799     0.068127
O    -5.515541     3.279918    -0.035537
H    -6.445737     3.399530    -0.317710
H     6.739123    -1.190877    -1.350218
O     5.964856    -1.040889    -0.801362
H     5.546744    -1.908628    -0.603075
H     4.597985    -3.177050    -2.460229
O     3.730133    -3.005928    -2.876457
H     3.733721    -3.624462    -3.632694
H     4.336193    -2.335505     5.554595
O     4.025215    -2.789738     6.367016
H     4.438899    -3.665293     6.289770
H    -0.750513     6.334974     5.079253
O    -1.347437     6.911278     5.616634
H    -1.359965     7.788231     5.175026
H     4.703242    -0.144365    -1.457058
O     3.936107     0.398262    -1.720513
H     3.243683    -0.202121    -2.050826
H    -0.733743     4.518229    -4.032729
O    -1.516020     5.061547    -4.241689
H    -1.364585     5.928243    -3.819133
H     0.666740     3.198041    -2.652204
O     0.674763     3.574390    -3.560925
H     0.722080     2.810688    -4.146080
H    -5.384195    -5.194635     1.797860
O    -4.687619    -5.789971     1.443281
H    -3.847096    -5.374317     1.714389
H     7.886542    -1.701205    -4.022174
O     7.628020    -1.387788    -3.123007
H     7.142036    -0.543512    -3.279660
H     3.705267    -5.080852    -5.280041
O     4.467922    -4.708262    -4.798607
H     4.851324    -5.419352    -4.252360
H    -3.784174     0.017041     4.938385
O    -4.385182     0.481777     5.570194
H    -5.045792    -0.175820     5.862156
H     3.464653    -5.949263    -0.510568
O     4.339787    -5.704176    -0.823423
H     4.415513    -4.741162    -0.682483
H     5.006580    -0.344955    -4.151098
O     4.471265    -1.056375    -4.541065
H     4.144290    -1.638891    -3.822996
H    -1.165352     1.566745    -3.931758
O    -1.815342     2.187440    -4.318071
H    -1.457062     2.518767    -5.164180
H     4.887246    -6.330456    -2.302352
O     5.219430    -6.656788    -3.167831
H     6.037790    -7.136991    -2.981312
H     8.742928    -5.102036    -2.905397
O     8.051712    -5.520353    -2.347157
H     8.085403    -6.477426    -2.450228
H     2.343936     4.713622     0.457868
O     1.764067     4.696306     1.228555
H     1.406211     3.776239     1.306510
H    -4.416509    -2.635100     4.235550
O    -5.310228    -2.295439     4.032082
H    -5.172474    -1.514344     3.456721
H    -5.845458    -3.196527     1.320677
O    -6.308962    -3.753203     1.988817
H    -6.120846    -3.317513     2.839392
H     1.687333     3.464757     6.868782
O     1.065032     3.980609     6.334277
H     0.281923     4.134359     6.905464
H     4.998811    -2.175823     3.624709
O     5.020389    -1.462915     4.296359
H     4.210320    -0.900015     4.137573
H     2.379508    -5.579126     4.846857
O     2.760012    -6.466568     4.588728
H     2.016632    -7.050125     4.416255
H     2.262193    -4.524995    -6.781200
O     2.092513    -5.012841    -5.965351
H     1.827510    -4.321051    -5.310538
H     6.440967    -4.112687    -0.490637
O     7.192629    -4.518841    -0.027910
H     7.700201    -4.939858    -0.749095
H    -1.724501     4.489034     7.704608
O    -0.825864     4.586910     8.090389
H    -0.644401     5.545915     8.114753
H    -5.108743     5.689965    -5.595413
O    -4.501502     4.926158    -5.615144
H    -3.743806     5.140037    -6.180725
H     3.288279    -2.537621    -8.427938
O     3.200022    -3.069906    -7.626436
H     4.076431    -3.045638    -7.197116
H    -0.650640     8.821910    -2.275742
O    -0.527516     9.650628    -1.757334
H     0.234232     9.476055    -1.179900
H     2.065893    -0.916388     5.220776
O     1.490712    -1.441796     5.805699
H     1.585560    -1.099175     6.703893
H     5.211316    -2.034377    -5.683056
O     5.557217    -2.801136    -6.204679
H     5.282829    -3.590611    -5.686808
H     5.577966    -5.390128     4.773841
O     5.081796    -5.363516     5.633632
H     4.334572    -5.966849     5.505241
H    -3.974994     1.146493     7.010359
O    -3.783307     1.622729     7.853954
H    -4.659302     2.008779     8.114195
H    -1.842601     9.611041    -0.744310
O    -2.703377     9.485222    -0.270329
H    -3.314077     10.113771    -0.658828
H    -5.941003     4.687309    -2.937986
O    -6.849521     4.568538    -3.282725
H    -6.759029     3.865745    -3.959359
H     0.094731    -7.069790    -1.134552
O     0.558328    -7.505623    -0.386326
H    -0.121634    -7.699934     0.261918
H    -7.631248     3.790284    -1.973669
O    -7.893399     3.203770    -1.233523
H    -7.750541     2.294867    -1.572550
H     3.974570    -0.900537     7.000536
O     3.976224     0.063365     6.977369
H     4.795638     0.354955     6.560816
H     2.265061     5.789849    -1.174257
O     3.200436     5.496831    -1.059577
H     3.377188     4.956230    -1.852372
H     6.554506    -5.933109     0.697902
O     6.188620    -6.663362     1.241987
H     5.277319    -6.393798     1.447749
H    -3.867927     4.729946     7.782865
O    -3.301427     4.266681     7.124116
H    -3.494882     3.323327     7.235259
H     5.763898    -7.949953     0.156885
O     5.476565    -8.637312    -0.479904
H     4.647541    -8.313557    -0.876462
H    -0.557951     2.040267     7.698420
O    -1.191035     1.976348     6.962995
H    -2.059585     1.834913     7.359340
H    -6.380672    -0.121605     1.064783
O    -6.700377    -0.205792     0.151733
H    -7.619360    -0.475725     0.169422
H    -5.370657    -3.065433    -0.584248
O    -5.118161    -2.363233     0.041362
H    -5.687739    -1.590068    -0.146527
H     4.323068     5.570964     0.326820
O     4.656579     5.671806     1.232112
H     3.962200     6.182553     1.684005
H    -9.040866    -1.745050    -2.251772
O    -8.493203    -1.543607    -1.465608
H    -8.621316    -2.279813    -0.827590
H    -5.516614     3.467454    -5.526098
O    -6.034501     2.757130    -5.111459
H    -5.368459     2.171592    -4.696965
H     3.186027    -0.897459    -5.646831
O     2.330266    -1.017408    -6.113030
H     2.415683    -1.866653    -6.585989
H     8.119907    -1.362013    -6.017707
O     8.127441    -2.226042    -5.561317
H     7.270978    -2.625322    -5.811899
H     7.627504     0.978614    -6.299974
O     7.438366     0.130191    -6.712910
H     6.457022     0.080763    -6.749612
H    -7.860632    -3.692004     0.933240
O    -8.538504    -3.585097     0.248312
H    -8.440407    -4.344937    -0.352832
H    -2.400724     8.734495     1.294170
O    -2.250687     8.146193     2.047518
H    -1.480595     7.592653     1.825486
H    -4.439757     6.435444     3.497927
O    -4.609353     6.860994     2.641040
H    -3.845638     7.446606     2.501637
H     3.407403     3.438333    -3.570737
O     3.254499     4.407712    -3.478037
H     2.289695     4.472809    -3.585993
H    -6.112052    -1.607842    -3.438756
O    -6.195664    -2.186825    -2.654653
H    -6.979717    -1.878933    -2.146485
H     6.471502     1.044640     4.750628
O     6.070327     1.582901     5.449482
H     6.262857     2.501252     5.161841
H     1.368356     1.714225    -5.816364
O     1.172966     1.118779    -5.062018
H     1.536293     0.255444    -5.331094
H    -2.491165     2.965386     10.487600
O    -2.279610     2.057497     10.214860
H    -2.876847     1.857955     9.482139
H     7.631103    -0.498130     3.087419
O     6.878685     0.074059     3.259133
H     6.188240    -0.525740     3.635834
H    -5.660813    -8.055655    -0.694442
O    -4.926160    -8.124365    -0.047766
H    -4.930023    -7.306910     0.473999
H    -5.172411    -0.122157    -4.711789
O    -5.789612    -0.833785    -4.951746
H    -6.627487    -0.391810    -5.150352
H     1.896402    -0.207636    -7.507609
O     1.695513     0.263784    -8.351928
H     2.272333    -0.142143    -9.004463
H     4.878987    -1.405214    -9.294460
O     3.954029    -1.176253    -9.577261
H     3.934360    -1.294179    -10.526297
H     7.697928    -2.311498     4.272117
O     7.898657    -2.574295     3.344596
H     7.229221    -3.244443     3.135190
H     6.582149    -5.914992     2.726331
O     6.631021    -5.260233     3.453956
H     7.544104    -5.334795     3.818121
H    -1.815523     8.946159     3.498356
O    -1.568160     9.251327     4.396604
H    -2.417099     9.384261     4.851680
H    -7.383928     1.565326    -5.249174
O    -7.959208     0.821542    -5.004104
H    -8.860780     1.221648    -4.928778
H     6.932477    -1.095680    -8.393817
O     6.350458    -1.816730    -8.657377
H     6.121894    -2.265896    -7.825233
H    -1.666971     6.234746    -7.020013
O    -2.065213     5.409701    -6.746292
H    -1.817464     5.279361    -5.782362
H     0.000031     3.311249     9.028368
O     0.196253     2.391434     9.283544
H    -0.601938     2.127705     9.790187
H     6.758629    -2.789215    -2.692762
O     6.227449    -3.533418    -2.352516
H     6.696087    -4.344235    -2.598238
H    -4.074179    -3.077144    -4.937838
O    -4.227542    -2.964999    -5.902841
H    -4.774559    -2.171822    -5.959813
H     1.979982     2.182186     8.472084
O     2.643289     2.293412     7.781348
H     3.065580     1.422852     7.667776
H    -6.907682    -5.202195    -1.390343
O    -7.823169    -5.471624    -1.636365
H    -7.956152    -5.069310    -2.519524
H    -3.825079     5.257463     5.699189
O    -3.791657     6.025464     5.107807
H    -2.857581     6.319442     5.202382
H    -7.881506     0.087641    -1.964137
O    -7.391082     0.810701    -2.377843
H    -7.618900     0.799318    -3.331176
H     5.840062     0.122583     0.420917
O     5.616971     0.844589     1.040872
H     6.128176     0.651627     1.853664
H    -6.215234     3.315032     7.397754
O    -6.088223     2.797221     8.226778
H    -6.688734     2.036111     8.138599
H     2.275778    -8.079599    -0.831083
O     2.955317    -8.068761    -1.524921
H     2.729931    -8.781872    -2.139006
H    -2.741159    -3.967361    -6.189998
O    -1.987946    -4.533904    -5.957481
H    -1.712020    -4.241865    -5.060349
H    -5.642183     3.763894     5.311076
O    -6.291684     4.161148     5.927422
H    -6.127173     5.105031     5.914055
H    -1.018564    -7.119729    -3.152966
O    -0.545647    -6.450155    -2.624913
H     0.361677    -6.381131    -3.006008
H     4.445000     2.012299     5.137712
O     3.502955     2.250989     5.016253
H     3.118759     2.268496     5.898235
H     4.111402     4.653939     6.308198
O     4.192488     5.383773     5.689742
H     3.625250     5.142892     4.918820
H     2.767042     3.613594     3.929901
O     2.590081     4.553705     3.763021
H     2.471189     4.651822     2.796571
H     9.396666     0.202327    -1.059491
O     8.590140     0.365278    -0.566936
H     8.414067    -0.454601    -0.074429
H    -2.101410     5.324221     10.653914
O    -2.824207     4.696493     10.885100
H    -3.042423     4.873890     11.800276
H     7.975362    -3.013683     0.329949
O     8.398998    -2.167708     0.579008
H     8.331953    -2.165486     1.543770
H     5.372744     3.659936     3.533386
O     6.029470     3.926096     4.198564
H     5.616928     4.643680     4.700938
H    -4.209171     5.027258     9.786967
O    -4.841949     5.177963     9.064574
H    -5.454035     4.429537     9.062402
H    -7.008719    -3.479505    -3.480621
O    -7.629297    -4.091347    -3.928990
H    -7.108151    -4.534080    -4.630667
H     0.027319     6.131066     10.774967
O    -0.836815     6.463129     10.526965
H    -0.720101     6.893025     9.660464
H     2.594587     1.487959    -4.097882
O     3.473210     1.840070    -3.859312
H     3.792598     1.325701    -3.087891
H    -6.974568    -0.213375     7.222997
O    -7.482982     0.565537     7.502501
H    -8.105581     0.748895     6.797882
H    -2.746152    -9.876091    -0.819093
O    -2.682119    -8.934600    -0.979457
H    -3.587986    -8.567300    -0.739508
H    -10.061947     3.075870    -4.898331
O    -10.179728     2.158644    -4.617116
H    -10.395850     2.243442    -3.667517
H    -2.069899    -3.023822     4.621643
O    -2.945159    -3.463519     4.690968
H    -2.939064    -4.081782     3.935190
H    -0.182208    -7.984603     2.498074
O     0.644784    -7.774918     2.945195
H     1.362223    -8.071785     2.357930
H     7.258435    -2.764762     6.469417
O     7.321108    -1.946695     5.948684
H     6.405045    -1.670954     5.817303
H    -5.275085    -1.999060     6.949145
O    -5.950953    -1.501035     6.464490
H    -5.934464    -1.878655     5.555624
H     0.843954     3.024410    -7.108953
O     1.761388     2.692963    -7.164597
H     1.747306     1.945070    -7.789941
H    -3.950740     8.759958     6.672719
O    -3.948641     8.757092     5.715346
H    -4.074091     7.829358     5.448331
H    -2.049840     10.310306    -2.737259
O    -2.951259     10.492159    -3.039644
H    -2.878907     11.125615    -3.752925
H     9.064002    -4.071588     4.271159
O     9.047006    -4.970844     4.640304
H     8.680040    -4.862572     5.533181
H    -0.733034    -6.004161    -5.830364
O    -0.029972    -6.570774    -5.496117
H     0.805837    -6.109886    -5.714050
H     1.832415     8.271020     0.667548
O     1.529660     8.592495    -0.210390
H     2.344588     8.629678    -0.740524
H     3.505709     2.919966    -6.655532
O     4.332962     2.629267    -6.245906
H     4.087280     2.356591    -5.336793
H     3.740409     7.118374    -1.225320
O     3.946863     8.053816    -1.439465
H     4.316402     7.996816    -2.332579
H     4.401138    -0.018528    -7.902917
O     4.778026     0.127935    -7.033457
H     4.596824     1.060157    -6.790440
H     6.034236     1.925598    -0.467163
O     6.600007     2.117581    -1.228941
H     7.424214     1.637424    -1.033892
H     6.683624    -8.440092    -1.590065
O     7.319405    -8.231048    -2.326814
H     7.683816    -9.065875    -2.615947
H    -5.299941    -5.791673    -5.399862
O    -5.916511    -5.119514    -5.715436
H    -5.364777    -4.351770    -5.952364
H     0.685501     7.174325     7.604396
O    -0.216228     7.202998     7.963380
H    -0.771341     7.217282     7.145695
H    -8.895002    -2.833771    -4.098057
O    -9.415008    -2.024824    -3.931325
H    -9.128285    -1.360515    -4.561756
H    -2.410322    -5.991693    -2.134159
O    -3.288081    -5.704911    -2.403458
H    -3.475194    -6.079926    -3.289065
H    -2.985299    -5.904610    -5.400601
O    -3.585632    -6.513808    -4.928161
H    -3.104305    -7.334294    -4.760957
H    -1.382575     3.720255    -6.978714
O    -0.842888     2.964235    -6.707379
H    -1.080326     2.178946    -7.256793
H    -0.197772     0.409255    -8.209466
O    -1.093803     0.645172    -7.926601
H    -1.269589     0.122271    -7.128339
H    -10.416920     4.055041    -2.734661
O    -10.485084     3.276690    -2.166192
H    -9.655941     3.250089    -1.656923
H     4.583804     4.075305     1.727521
O     4.374703     3.154287     2.005219
H     5.091233     2.578563     1.725347
H     6.490750     1.387923    -4.210585
O     6.186964     0.764410    -3.516479
H     6.217943     1.260332    -2.672837
H     9.634005    -2.234218    -0.917067
O     9.911750    -2.024692    -1.818258
H     9.112167    -1.683579    -2.261081
H     9.970569    -3.333010    -3.084663
O     9.704048    -3.985752    -3.759517
H     9.310734    -3.478435    -4.480204
H    -7.700789    -8.573993    -1.657919
O    -6.962530    -7.980177    -1.786310
H    -7.339686    -7.066893    -1.777152
H     4.168193     6.072802    -3.815721
O     4.829651     6.773759    -3.731216
H     5.665540     6.319500    -3.592810
H     0.097772    -8.177168    -5.203568
O     0.121426    -9.160005    -5.070853
H     0.271354    -9.524575    -5.943177
H    -2.334655    -8.677106    -2.704915
O    -2.099809    -8.413923    -3.614402
H    -1.453689    -9.033290    -3.972460
H     2.181185    -10.823361    -3.480937
O     2.135845    -9.868775    -3.457098
H     1.350905    -9.597813    -3.984048
H     6.842003     3.320043    -4.566745
O     6.900084     2.641431    -5.267244
H     6.106885     2.774681    -5.808290
H    -3.567757    -3.718226     7.728998
O    -3.682494    -2.931224     7.197838
H    -3.430224    -3.170959     6.280047
H    -0.634627    -3.369211    -6.715879
O    -0.003723    -2.638364    -6.723408
H    -0.485024    -1.862220    -6.382607
H     0.641372     0.461737     8.759999
O     0.647137    -0.251560     8.117887
H    -0.274985    -0.540854     8.032037
H    -5.825670     7.366394    -4.251652
O    -6.328691     6.747474    -4.812541
H    -6.616343     6.017097    -4.220986
H    -4.269813     9.101254    -3.263778
O    -4.805911     8.305408    -3.157302
H    -4.398114     7.826189    -2.417842
H    -9.703895     5.797576    -4.646974
O    -10.237735     4.993250    -4.483274
H    -11.118141     5.194470    -4.802404
H     2.771885     6.514448     6.144831
O     1.811720     6.611721     6.241744
H     1.467855     5.698338     6.140269
H     4.810749     8.541412     0.087997
O     5.127860     8.542797     1.009001
H     5.534130     7.678322     1.140856
H     4.142822    -7.434751    -4.329222
O     3.384920    -7.719409    -4.871753
H     3.103780    -8.559943    -4.495328
H     0.382454     8.659094     4.236412
O     1.059880     8.013988     4.008845
H     1.285903     7.521483     4.823927
H     5.241317     4.183269    -3.151079
O     6.202732     4.152483    -3.098212
H     6.411009     3.571609    -2.349697
H    -2.580376    -1.541438     7.580175
O    -2.069854    -0.748096     7.799025
H    -2.694912    -0.121477     8.173715
H    -9.019225     7.937471    -4.148355
O    -8.956004     7.352285    -4.904674
H    -7.998926     7.187708    -5.039317
H     3.526285    -8.985414     1.103623
O     2.850619    -8.353031     1.353489
H     3.325750    -7.547136     1.631078
H     3.590351     8.168056     1.833186
O     2.799416     7.605135     1.945236
H     2.353068     7.841364     2.771174
N     7.328869    -4.651768     6.997483
H     7.491682    -4.984461     7.884228
H     6.503953    -5.088880     6.690148
