33
Coordinates from ORCA-job grain_mol_opt.QMRegion
  H   -3.71896255693582      0.06371330126186      4.87537097335669
  O   -4.28595427756608      0.54559016594990      5.53279537683121
  H   -5.06231407314912     -0.02618437024596      5.68115390755647
  H   -4.03162670766331      1.24990966822989      7.03070639497261
  O   -3.98961242273880      1.73617568572599      7.89152304397980
  H   -4.87704643645285      2.18257981167321      7.98397027852369
  H   -3.86799392088560      4.82068932814075      7.80946820277963
  O   -3.29556805567060      4.38267607666450      7.13890867332518
  H   -3.46666473693258      3.43134159646338      7.24922475763773
  H   -0.53845813049905      2.04841907440025      7.68767554735164
  O   -1.20557862190098      1.92426668446535      6.98824761006073
  H   -1.94624257796280      1.49372320138954      7.42904395163641
  H   -2.44589921837388      3.02760723652065     10.47900522875584
  O   -2.27411020224011      2.09764807542818     10.24076174646965
  H   -2.85497428194860      1.94347867006314      9.47860504110460
  H   -6.41981781288868      3.40447703553755      7.29155445657470
  O   -6.30845020487243      2.92273693830158      8.15071988311401
  H   -6.92069315732208      2.16727158151757      8.10121227364103
  H   -7.18599806044596     -0.20647411945823      7.32155036632159
  O   -7.55954482502662      0.36945304531867      8.01939864655925
  H   -8.51124105533537      0.25473405480891      7.95145287026615
  H   -5.40841888771666     -1.70049573112741      6.86051578354989
  O   -6.11479345149530     -1.30641792315084      6.31498825039048
  H   -6.03856891604965     -1.78733681705196      5.45928498942056
  H   -3.76148913011111     -3.37227942334684      7.66654039533976
  O   -3.61642049275750     -2.64829127564669      7.05167437337881
  H   -3.39051110492883     -3.07294958602756      6.19722131105864
  H   -2.51280035293956     -1.32235503270867      7.68576765585698
  O   -2.04761932123745     -0.61188320958800      8.16254636330532
  H   -2.34775837899901     -0.70745066793460      9.07008191632170
  O   -4.86639698332846     -0.66721967647709      9.21907642695979
  H   -4.56952804268969      0.15549525493182      8.78674486532545
  H   -5.80717505855188     -0.51674404181500      9.35917710091437
