30
Coordinates from ORCA-job grain_mol_opt.QMRegion
  H   3.48674855431927      2.65567490536750      0.40487200072841
  O   3.29244784645207      2.68013779220392     -0.54855078205495
  H   3.54353124342791      1.79809901986861     -0.88825781474984
  H   4.23630583128692      5.65361973759480      0.33682348936913
  O   4.55741668839577      5.76607330040308      1.25049469702505
  H   3.83985383567089      6.29294679787350      1.65573964673772
  H   6.50455401218054      1.03378021938398      4.87082144811125
  O   6.09455544107362      1.55329647704828      5.57893479609043
  H   6.23923561234330      2.47863091603086      5.28598284151550
  H   7.52585127567064     -0.67161995365401      3.13256396130643
  O   6.85242637229592     -0.00160741607169      3.31025035813452
  H   6.13313463633095     -0.56341461513933      3.71141176721151
  H   5.75872688352690      0.02470351267419      0.38367970903403
  O   5.54156890535723      0.73805611451728      1.01616462259184
  H   6.01638171990134      0.49207425669460      1.83607984382888
  H   9.44387332283455      0.10907106539845     -1.00711417037444
  O   8.66535084039586      0.31550838019485     -0.47660847450687
  H   8.46750034796117     -0.52843242306924     -0.03044059412542
  H   5.31724772444855      3.69187030730885      3.67676565999244
  O   6.03405174631854      3.96939654177802      4.29175827912124
  H   5.62812881669138      4.69056523229966      4.80664160683291
  H   6.06726110671307      2.03399674112284     -0.48744384053191
  O   6.64218299817652      2.13092432703815     -1.25652831217392
  H   7.42844007826933      1.60713013039363     -1.03216556470319
  H   4.46461619172033      4.16816586687989      1.80535241496133
  O   4.41591980419217      3.21829929977150      2.07295046344329
  H   5.27475253197890      2.86847971014971      1.78981815587035
  O   7.27040873812732      3.29916467365806      1.70895851915328
  H   7.27404625000914      3.72457167295368      2.57846100281403
  H   7.86191023092723      2.54533136152632      1.78868502966528
