24

H     3.173615    -2.591289    -8.479195
O     3.110123    -3.058390    -7.634196
H     3.995283    -3.002120    -7.236584
H     5.172706    -2.010712    -5.607108
O     5.546422    -2.756887    -6.146272
H     5.257972    -3.563093    -5.647899
H     8.099930    -1.249320    -5.973221
O     8.194851    -2.163920    -5.631261
H     7.295602    -2.527313    -5.783732
H     7.528174     1.136486    -6.284887
O     7.378212     0.270637    -6.694679
H     6.397252     0.204622    -6.731784
H     4.851430    -1.346214    -9.405377
O     3.918856    -1.131174    -9.647636
H     3.916736    -1.033161    -10.602755
H     6.911561    -1.063774    -8.458351
O     6.378589    -1.833459    -8.699019
H     6.092904    -2.193756    -7.836886
H     10.022542    -3.315688    -2.958448
O     9.870063    -4.003629    -3.641789
H     9.451844    -3.519110    -4.365497
N     8.781392    -3.756633    -8.191898
H     8.071794    -3.285736    -8.645753
H     8.868094    -3.266969    -7.362448
