603

H     0.203166     3.022507    -0.670412
O     0.726767     2.355289    -1.164360
H     1.665151     2.483780    -0.890024
H    -0.085554    -1.263004     3.068789
O     0.390869    -0.567920     2.584949
H    -0.071691     0.254217     2.829790
H    -2.395783     2.401449    -0.529186
O    -2.183831     1.930387     0.294089
H    -2.202197     0.982460     0.068801
H    -4.659258     0.538005     2.184611
O    -4.978256    -0.394145     2.194381
H    -4.471179    -0.874379     1.531735
H     0.069358    -0.318617     0.959184
O    -0.129485    -0.082425     0.031608
H     0.207607     0.814926    -0.088799
H    -0.272232    -3.564509     3.693528
O    -0.651465    -2.764351     4.094311
H    -0.397192    -2.823073     5.044465
H    -4.883904     2.520592     1.336213
O    -4.243396     2.112873     1.950893
H    -3.401306     2.093814     1.437487
H    -3.245739     3.890510    -2.203738
O    -2.507523     3.294110    -1.973321
H    -2.149392     3.006519    -2.833177
H    -0.119378    -3.811737     0.508089
O     0.222349    -2.998260     0.932657
H    -0.566818    -2.510838     1.239673
H    -2.372270    -1.551908     2.472895
O    -2.186830    -2.015635     1.630166
H    -2.444894    -1.426595     0.902614
H     2.074963    -1.452980    -1.112987
O     2.307673    -1.707526    -0.196175
H     1.517863    -2.134415     0.189056
H    -1.390346     1.813925     1.917955
O    -1.477046     1.416229     2.794387
H    -1.467522     2.128452     3.459370
H     0.212156    -2.711326    -1.565787
O    -0.542668    -2.099032    -1.620988
H    -0.364516    -1.373738    -0.985379
H    -3.433084    -2.936612    -0.388311
O    -2.716016    -3.426494    -0.812212
H    -2.006228    -2.794596    -1.027029
H     2.772223     0.115323     2.934626
O     2.886346    -0.060253     3.896028
H     2.970530     0.834743     4.297691
H    -3.527207     6.371210    -0.533111
O    -3.288440     7.034637    -1.232532
H    -3.147265     7.879215    -0.761218
H     3.904221     0.573575     1.191472
O     2.953914     0.392081     1.307617
H     2.715029    -0.360254     0.728855
H    -5.778440     0.834017    -1.599504
O    -4.868132     1.162111    -1.474186
H    -4.979391     1.989722    -0.961412
H    -1.210737     5.385808     2.220473
O    -1.835033     4.638467     2.102561
H    -1.914298     4.219103     2.964614
H     3.495059     2.752964     0.434192
O     3.248928     2.711922    -0.505304
H     3.580469     1.869257    -0.856574
H     1.494329    -4.704239    -2.248790
O     1.560088    -3.928091    -1.674389
H     2.353702    -3.465980    -2.025966
H    -0.918557    -0.092268    -2.543546
O    -0.283941     0.560346    -2.866658
H    -0.024531     1.142144    -2.129000
H     1.702448    -4.694849    -0.176234
O     1.811481    -5.333496     0.564794
H     1.345333    -6.143077     0.268481
H    -1.223692    -3.272677    -2.878027
O    -1.048205    -3.955265    -3.539150
H    -0.923423    -4.802583    -3.070509
H    -2.779448     3.293703     4.712432
O    -1.797909     3.292468     4.679917
H    -1.506763     2.886099     5.515001
H     0.962229     5.021341     4.086011
O     0.016367     5.253619     4.138400
H    -0.456617     4.450459     4.395091
H    -1.725593    -4.658737    -0.370903
O    -0.960344    -5.200964    -0.088353
H    -1.309822    -5.886042     0.490964
H    -3.915242     5.825210    -2.588725
O    -4.265762     4.991364    -2.919314
H    -4.110819     4.957369    -3.887502
H    -2.427569    -3.704034     1.936219
O    -2.442352    -4.618534     2.286441
H    -1.505428    -4.844870     2.452056
H    -4.691994    -2.986359    -2.897518
O    -3.839686    -3.219008    -3.304218
H    -3.508828    -4.012577    -2.838716
H     0.338162     1.360655     4.622383
O     0.848973     2.119523     4.291659
H     0.890911     2.781473     4.995999
H    -4.652028    -5.178355    -1.571177
O    -5.354352    -4.825439    -0.997965
H    -5.141684    -5.180009    -0.113471
H     2.330720    -6.487177    -4.040159
O     1.994402    -6.158989    -3.186202
H     2.427809    -6.733921    -2.523502
H     0.470540    -3.384673    -4.003110
O     1.273485    -3.017589    -4.426022
H     0.953708    -2.645159    -5.274048
H     2.011762    -1.774909     2.948086
O     2.107096    -2.732084     2.815068
H     1.493520    -2.920373     2.074290
H    -3.011824    -1.815723    -3.207034
O    -2.589276    -0.929280    -3.142404
H    -3.245350    -0.283439    -3.460384
H    -3.189179     4.964989     1.088773
O    -3.970305     5.339600     0.634329
H    -4.386047     5.896157     1.341119
H     0.877468     2.241936     2.598729
O     0.980061     2.240043     1.627779
H     1.704955     1.614724     1.462613
H     0.191874     5.648314    -0.748170
O     0.714067     6.310721    -1.255932
H     0.855265     7.110104    -0.699464
H     0.344145     7.024702     2.602442
O    -0.017555     6.644990     1.784570
H     0.646342     5.974498     1.522714
H    -2.462648     0.270792     3.327401
O    -2.717102    -0.552670     3.805588
H    -1.958222    -0.612122     4.423714
H    -0.876095     0.627583     6.015804
O    -0.598867     0.083070     5.252392
H     0.194310    -0.425036     5.556729
H     0.691383    -5.104655     1.905073
O     0.183326    -5.168215     2.739966
H     0.285566    -6.103912     2.993576
H    -2.115971    -8.097931     0.446241
O    -1.791873    -7.612058     1.231957
H    -2.577503    -7.299455     1.688380
H    -0.377672     6.856768    -2.314069
O    -1.124042     7.277299    -2.812776
H    -1.914138     7.150115    -2.249397
H    -1.111997     4.299766     0.582614
O    -0.738706     4.362127    -0.313245
H    -1.445129     4.120319    -0.946030
H    -4.408289     2.734027     3.515078
O    -4.406034     2.903392     4.479760
H    -4.489797     2.019515     4.887768
H     1.955066    -3.599098     4.421680
O     2.070524    -4.080522     5.268018
H     2.755646    -3.547704     5.733896
H     4.687819    -3.203932     0.842915
O     4.529574    -3.127966    -0.123363
H     3.670137    -2.650941    -0.208255
H    -2.720360    -0.756296    -1.348605
O    -3.046836    -0.485634    -0.474188
H    -3.848713     0.038325    -0.679941
H    -1.614117    -0.765941    -4.627621
O    -1.106407    -0.549342    -5.431056
H    -0.397118     0.047108    -5.144661
H     1.797666    -1.720978    -3.372768
O     1.890364    -0.975006    -2.748711
H     1.112614    -0.398026    -2.878966
H     3.650556    -3.141556     2.569536
O     4.611420    -3.361235     2.484452
H     4.676255    -4.321575     2.605312
H     3.424124    -6.126163     3.123803
O     3.782748    -5.932721     2.225328
H     3.046787    -5.587177     1.678721
H    -3.341404     1.605728    -4.171490
O    -4.186292     1.134956    -3.981721
H    -4.404211     1.279188    -3.024753
H    -5.081210     4.138467     0.074212
O    -5.519223     3.272410    -0.030401
H    -6.449914     3.391262    -0.311311
H     6.736064    -1.190231    -1.358933
O     5.965009    -1.041539    -0.805158
H     5.545197    -1.909295    -0.609909
H     4.596868    -3.176272    -2.468062
O     3.728997    -3.004544    -2.883557
H     3.731789    -3.622444    -3.640439
H     4.581637    -2.328809     5.596758
O     4.272277    -2.835940     6.387521
H     4.641907    -3.728158     6.238241
H    -0.753542     6.323973     5.086047
O    -1.349555     6.899465     5.625068
H    -1.363793     7.776724     5.184031
H     4.700493    -0.145038    -1.461140
O     3.933178     0.397623    -1.722941
H     3.240418    -0.202369    -2.053960
H    -0.740345     4.517934    -4.028121
O    -1.522858     5.061232    -4.236119
H    -1.371828     5.927437    -3.812573
H     0.661472     3.196987    -2.650117
O     0.669505     3.574631    -3.558309
H     0.716191     2.811608    -4.144420
H    -5.382981    -5.203337     1.794097
O    -4.688259    -5.799368     1.436267
H    -3.845811    -5.384630     1.702302
H     7.883556    -1.696527    -4.029578
O     7.625681    -1.384066    -3.129546
H     7.138910    -0.539958    -3.285663
H     3.703479    -5.076490    -5.289549
O     4.466298    -4.704070    -4.808027
H     4.850266    -5.415901    -4.263144
H    -3.780866     0.004065     4.941981
O    -4.383536     0.468307     5.572976
H    -5.039993    -0.192799     5.866403
H     3.465530    -5.951359    -0.521560
O     4.340347    -5.704809    -0.834417
H     4.415137    -4.742084    -0.693000
H     5.002581    -0.341616    -4.155425
O     4.467796    -1.052987    -4.545929
H     4.141047    -1.636636    -3.828651
H    -1.170286     1.565920    -3.930367
O    -1.820371     2.187254    -4.315449
H    -1.462953     2.519381    -5.161562
H     4.887382    -6.329846    -2.314565
O     5.220345    -6.653711    -3.180504
H     6.038264    -7.135013    -2.994633
H     8.742462    -5.098949    -2.916838
O     8.051744    -5.517259    -2.358120
H     8.085851    -6.474409    -2.462041
H     2.339458     4.710361     0.460685
O     1.761445     4.691522     1.232749
H     1.403193     3.771249     1.309085
H    -4.440196    -2.656847     4.224093
O    -5.331934    -2.295498     4.026152
H    -5.179358    -1.517500     3.453077
H    -5.844296    -3.206403     1.320314
O    -6.306864    -3.764142     1.987502
H    -6.120021    -3.326236     2.838621
H     1.685960     3.456384     6.870653
O     1.063225     3.970695     6.336668
H     0.279548     4.123386     6.908138
H     4.999851    -2.182865     3.620672
O     5.020765    -1.467859     4.288746
H     4.212001    -0.906264     4.127269
H     2.386072    -5.692506     4.854072
O     2.779175    -6.558131     4.581690
H     2.053514    -7.142371     4.339108
H     2.259038    -4.519991    -6.789171
O     2.090791    -5.008812    -5.973637
H     1.825122    -4.318131    -5.317909
H     6.441672    -4.112490    -0.502136
O     7.194308    -4.516096    -0.038153
H     7.702134    -4.937989    -0.759236
H    -1.724298     4.471932     7.710953
O    -0.824576     4.570325     8.095578
H    -0.645208     5.529725     8.121305
H    -5.116971     5.689091    -5.586953
O    -4.509070     4.925839    -5.607846
H    -3.751977     5.140763    -6.173780
H     3.283368    -2.529939    -8.434072
O     3.195899    -3.063190    -7.633133
H     4.072469    -3.039186    -7.204336
H    -0.659067     8.819595    -2.266051
O    -0.535882     9.647856    -1.746835
H     0.226238     9.473024    -1.170072
H     2.138583    -0.689340     5.240559
O     1.616316    -1.129873     5.938552
H     1.761518    -0.629561     6.756340
H     5.207598    -2.029141    -5.689626
O     5.554338    -2.794979    -6.211921
H     5.279891    -3.585370    -5.695373
H     5.698429    -5.228731     4.685332
O     5.175530    -5.144870     5.512540
H     4.453629    -5.776403     5.427172
H    -3.971835     1.132805     7.013814
O    -3.782871     1.614027     7.855606
H    -4.660438     1.994748     8.116155
H    -1.850472     9.606325    -0.732971
O    -2.710701     9.479605    -0.258313
H    -3.322218     10.107880    -0.645995
H    -5.947278     4.682551    -2.930115
O    -6.855743     4.564133    -3.274970
H    -6.765261     3.861857    -3.952181
H     0.096504    -7.072824    -1.143677
O     0.560749    -7.509276    -0.396160
H    -0.119301    -7.704799     0.251729
H    -7.636487     3.783282    -1.966240
O    -7.897841     3.196061    -1.226474
H    -7.754662     2.287403    -1.566209
H     3.984000    -0.908078     6.988258
O     3.986463     0.056046     6.984812
H     4.795056     0.353320     6.550800
H     2.259302     5.788024    -1.169776
O     3.195001     5.495333    -1.055868
H     3.371435     4.955914    -1.849619
H     6.552682    -5.939531     0.672366
O     6.184757    -6.674879     1.208247
H     5.278794    -6.399757     1.430821
H    -3.867281     4.713614     7.789477
O    -3.299266     4.251837     7.131199
H    -3.493615     3.307839     7.240254
H     5.763913    -7.955417     0.136835
O     5.475921    -8.642099    -0.500531
H     4.646584    -8.316744    -0.894871
H    -0.558744     2.030623     7.700843
O    -1.185599     1.955913     6.962458
H    -2.055801     1.817436     7.356963
H    -6.380429    -0.132358     1.066262
O    -6.702682    -0.213184     0.153508
H    -7.620771    -0.485846     0.173249
H    -5.371110    -3.072616    -0.585724
O    -5.117351    -2.369904     0.038691
H    -5.688759    -1.597702    -0.146817
H     4.318358     5.568387     0.329687
O     4.652145     5.667935     1.235114
H     3.957775     6.178446     1.687459
H    -9.043062    -1.752796    -2.249602
O    -8.494725    -1.551751    -1.463940
H    -8.621735    -2.288605    -0.826239
H    -5.523391     3.466139    -5.520102
O    -6.040756     2.755254    -5.105888
H    -5.374313     2.169399    -4.692391
H     3.181617    -0.893481    -5.650904
O     2.325789    -1.013127    -6.116846
H     2.411009    -1.861921    -6.590660
H     8.115720    -1.354592    -6.024832
O     8.123922    -2.218828    -5.568761
H     7.267753    -2.618626    -5.819953
H     7.621661     0.986158    -6.304276
O     7.432956     0.137887    -6.717682
H     6.451573     0.087967    -6.754356
H    -7.859561    -3.701601     0.933030
O    -8.537602    -3.594613     0.248008
H    -8.439524    -4.354303    -0.353179
H    -2.407175     8.726898     1.304849
O    -2.255782     8.138097     2.057566
H    -1.485925     7.584990     1.833892
H    -4.443669     6.423731     3.507047
O    -4.613698     6.850614     2.650938
H    -3.850336     7.436683     2.511891
H     3.401693     3.439946    -3.569711
O     3.248436     4.409120    -3.475435
H     2.283486     4.473687    -3.583087
H    -6.115083    -1.611711    -3.438538
O    -6.197735    -2.191884    -2.655364
H    -6.981483    -1.885319    -2.145807
H     6.468396     1.037128     4.745924
O     6.073523     1.573633     5.450232
H     6.260764     2.493225     5.160177
H     1.362575     1.717447    -5.816285
O     1.168606     1.121260    -5.062171
H     1.531287     0.258122    -5.332754
H    -2.487712     2.945132     10.491867
O    -2.274643     2.038449     10.216164
H    -2.873518     1.840997     9.483729
H     7.628494    -0.508894     3.087749
O     6.877803     0.065021     3.259471
H     6.186498    -0.536307     3.636937
H    -5.658059    -8.062575    -0.701851
O    -4.922798    -8.131697    -0.055979
H    -4.927176    -7.315028     0.467296
H    -5.176678    -0.123988    -4.710362
O    -5.793384    -0.835621    -4.951427
H    -6.631838    -0.394066    -5.148453
H     1.890531    -0.202068    -7.510128
O     1.689281     0.270486    -8.353696
H     2.265683    -0.134609    -9.007103
H     4.872989    -1.395754    -9.300078
O     3.947852    -1.166681    -9.582026
H     3.927522    -1.283833    -10.531152
H     7.566013    -2.583020     4.202353
O     7.710612    -2.618630     3.242702
H     7.218561    -3.410048     2.970538
H     6.720075    -5.905748     2.686171
O     6.781503    -5.232439     3.389866
H     7.658918    -5.316956     3.804992
H    -1.820636     8.936295     3.508945
O    -1.572756     9.240318     4.407501
H    -2.421535     9.372322     4.863208
H    -7.389585     1.562719    -5.244317
O    -7.964284     0.818205    -5.000225
H    -8.866028     1.217563    -4.923593
H     6.926829    -1.086163    -8.400039
O     6.345101    -1.807230    -8.664122
H     6.117157    -2.257584    -7.832464
H    -1.676100     6.237715    -7.012768
O    -2.073649     5.412028    -6.740009
H    -1.825509     5.280541    -5.776381
H     0.003691     3.293514     9.031441
O     0.200470     2.373228     9.285449
H    -0.599733     2.110814     9.790883
H     6.756838    -2.787020    -2.701858
O     6.227193    -3.531555    -2.360015
H     6.694940    -4.342137    -2.608708
H    -4.076963    -3.078365    -4.940343
O    -4.230628    -2.964944    -5.905228
H    -4.778454    -2.172211    -5.960744
H     1.977500     2.167384     8.474409
O     2.639543     2.277788     7.781965
H     3.071297     1.412627     7.669734
H    -6.907151    -5.209334    -1.393384
O    -7.822473    -5.479338    -1.639741
H    -7.956216    -5.075753    -2.522084
H    -3.827039     5.243093     5.706499
O    -3.794232     6.012270     5.116527
H    -2.860376     6.306387     5.210836
H    -7.884202     0.080741    -1.960147
O    -7.394986     0.804772    -2.373744
H    -7.623321     0.793797    -3.326857
H     5.838427     0.121104     0.416632
O     5.616703     0.842068     1.038295
H     6.126878     0.647016     1.850769
H    -6.216404     3.297446     7.403174
O    -6.089505     2.779925     8.232286
H    -6.687524     2.016924     8.143050
H     2.276928    -8.082009    -0.843792
O     2.956054    -8.069651    -1.538056
H     2.731237    -8.782527    -2.152692
H    -2.744090    -3.966156    -6.194212
O    -1.989900    -4.532042    -5.963154
H    -1.714117    -4.241332    -5.065527
H    -5.643111     3.748810     5.317787
O    -6.292409     4.145894     5.934553
H    -6.128612     5.089876     5.921508
H    -1.018193    -7.121247    -3.161834
O    -0.544902    -6.452023    -2.633638
H     0.361827    -6.381957    -3.015499
H     4.446316     2.006683     5.135331
O     3.504290     2.244522     5.016116
H     3.119347     2.264207     5.897358
H     4.109466     4.645436     6.309753
O     4.191729     5.375091     5.691415
H     3.623342     5.135704     4.920506
H     2.764655     3.606532     3.929531
O     2.588448     4.546973     3.765380
H     2.467705     4.646787     2.799029
H     9.393931     0.203174    -1.066175
O     8.588634     0.365764    -0.571299
H     8.412360    -0.454073    -0.080155
H    -2.100707     5.305132     10.660569
O    -2.821513     4.675398     10.891914
H    -3.041776     4.853616     11.806416
H     7.973651    -3.018853     0.330149
O     8.394818    -2.172465     0.586183
H     8.329351    -2.168007     1.548382
H     5.372236     3.654107     3.532511
O     6.026834     3.916127     4.202024
H     5.615367     4.636404     4.701645
H    -4.209458     5.006706     9.794420
O    -4.842127     5.159218     9.072526
H    -5.454249     4.410738     9.068433
H    -7.010449    -3.484137    -3.481856
O    -7.630974    -4.095366    -3.931180
H    -7.109853    -4.537105    -4.633422
H     0.028556     6.114739     10.780663
O    -0.836381     6.445515     10.533925
H    -0.721396     6.876662     9.667781
H     2.589685     1.489961    -4.099031
O     3.468372     1.842106    -3.860130
H     3.788093     1.326812    -3.089688
H    -6.968912    -0.233746     7.227946
O    -7.478062     0.544786     7.506953
H    -8.102394     0.726386     6.803386
H    -2.743055    -9.881168    -0.830305
O    -2.679456    -8.939563    -0.990123
H    -3.585344    -8.572787    -0.748567
H    -10.068312     3.071345    -4.889825
O    -10.185479     2.153663    -4.609900
H    -10.401040     2.236871    -3.660040
H    -2.257069    -3.170391     4.417337
O    -3.114460    -3.620818     4.622600
H    -3.159944    -4.276845     3.904637
H    -0.177696    -7.991930     2.489864
O     0.649826    -7.779708     2.935095
H     1.366358    -8.078298     2.347629
H     6.709637    -2.386629     6.396463
O     7.159369    -3.094955     5.931075
H     6.532644    -3.831994     5.891306
H    -5.260700    -2.026920     6.954095
O    -5.931187    -1.524351     6.472900
H    -5.921993    -1.898383     5.560603
H     0.836616     3.028774    -7.106930
O     1.754329     2.698108    -7.163567
H     1.740230     1.950870    -7.789713
H    -3.954872     8.744570     6.684463
O    -3.951734     8.743118     5.727105
H    -4.077669     7.815840     5.458673
H    -2.059067     10.307799    -2.725049
O    -2.960824     10.489673    -3.026360
H    -2.889409     11.123696    -3.739233
H     9.412757    -4.074199     4.045161
O     9.130666    -4.751366     4.667740
H     8.705146    -4.277488     5.393076
H    -0.734737    -6.002030    -5.838236
O    -0.031025    -6.568772    -5.505545
H     0.804316    -6.107057    -5.723154
H     1.826175     8.266680     0.675137
O     1.523004     8.589254    -0.202087
H     2.337494     8.627344    -0.732803
H     3.498612     2.925219    -6.655211
O     4.326337     2.634870    -6.246186
H     4.081078     2.360717    -5.337446
H     3.733740     7.117313    -1.220286
O     3.940020     8.053124    -1.432989
H     4.308709     7.997571    -2.326561
H     4.395108    -0.011254    -7.906329
O     4.772688     0.134702    -7.037058
H     4.590647     1.066452    -6.792945
H     6.030890     1.925167    -0.469695
O     6.596654     2.118485    -1.231012
H     7.421070     1.638545    -1.037284
H     6.684558    -8.439652    -1.606781
O     7.320774    -8.228113    -2.342651
H     7.687074    -9.062024    -2.632069
H    -5.301465    -5.792816    -5.404873
O    -5.918394    -5.120772    -5.719975
H    -5.367182    -4.352321    -5.955738
H     0.683208     7.161432     7.611397
O    -0.218110     7.187739     7.971329
H    -0.774004     7.203072     7.154005
H    -8.897324    -2.838669    -4.097498
O    -9.418032    -2.030271    -3.930169
H    -9.131463    -1.365085    -4.559722
H    -2.410183    -5.995220    -2.140316
O    -3.287699    -5.708150    -2.409971
H    -3.475136    -6.082893    -3.295473
H    -2.986452    -5.904593    -5.407351
O    -3.586308    -6.514780    -4.935754
H    -3.104384    -7.335018    -4.769079
H    -1.390294     3.723099    -6.974739
O    -0.849702     2.967257    -6.704715
H    -1.087195     2.182344    -7.254711
H    -0.204371     0.414269    -8.210006
O    -1.100246     0.649608    -7.926259
H    -1.275521     0.125492    -7.128646
H    -10.422461     4.047664    -2.724910
O    -10.490116     3.268631    -2.157351
H    -9.660656     3.241459    -1.648611
H     4.580258     4.071454     1.728364
O     4.374431     3.150317     2.008661
H     5.088910     2.574921     1.722982
H     6.485777     1.392014    -4.213928
O     6.183340     0.767466    -3.519981
H     6.213793     1.262940    -2.676230
H     9.633408    -2.234216    -0.926539
O     9.909941    -2.018906    -1.826068
H     9.109388    -1.680389    -2.269415
H     9.969589    -3.327817    -3.096339
O     9.702041    -3.979734    -3.771140
H     9.308447    -3.471921    -4.491351
H    -7.698502    -8.581013    -1.663590
O    -6.960658    -7.987032    -1.793658
H    -7.338005    -7.073787    -1.782558
H     4.160734     6.075280    -3.812080
O     4.821916     6.776410    -3.726698
H     5.658149     6.322332    -3.589887
H     0.097569    -8.175488    -5.214600
O     0.122269    -9.158443    -5.083273
H     0.271710    -9.521708    -5.956220
H    -2.333482    -8.679563    -2.714903
O    -2.098758    -8.415391    -3.624237
H    -1.452707    -9.034346    -3.983005
H     2.183420    -10.822525    -3.496260
O     2.137981    -9.867941    -3.471841
H     1.352349    -9.596816    -3.997726
H     6.835715     3.325033    -4.567899
O     6.893837     2.646942    -5.268854
H     6.100356     2.780333    -5.809539
H    -3.566911    -3.561747     7.813102
O    -3.656128    -2.877676     7.148567
H    -3.464865    -3.310581     6.281699
H    -0.638108    -3.366089    -6.720526
O    -0.007619    -2.634804    -6.727794
H    -0.489330    -1.859483    -6.385659
H     0.632864     0.529120     8.959838
O     0.579938    -0.259988     8.407748
H    -0.380897    -0.396835     8.287375
H    -5.834328     7.363332    -4.240648
O    -6.337158     6.744873    -4.802149
H    -6.624010     6.013389    -4.211452
H    -4.278675     9.098138    -3.251507
O    -4.814275     8.301883    -3.145753
H    -4.405870     7.821829    -2.407190
H    -9.711614     5.792955    -4.635875
O    -10.244872     4.988171    -4.472720
H    -11.125646     5.189137    -4.790988
H     2.769849     6.505088     6.148899
O     1.809952     6.601282     6.247886
H     1.465559     5.688490     6.143944
H     4.803898     8.539698     0.094151
O     5.121823     8.539994     1.014938
H     5.528657     7.675567     1.145096
H     4.142958    -7.431744    -4.341868
O     3.385032    -7.716111    -4.884426
H     3.104342    -8.557207    -4.508871
H     0.377360     8.649822     4.244685
O     1.055707     8.005825     4.016503
H     1.281670     7.512446     4.830875
H     5.235292     4.185486    -3.150520
O     6.196776     4.155413    -3.097861
H     6.405727     3.573653    -2.350343
H    -2.619304    -1.451489     7.572509
O    -2.138927    -0.651028     7.866629
H    -2.811030    -0.076451     8.251634
H    -9.028011     7.932403    -4.134730
O    -8.964764     7.348627    -4.892132
H    -8.007685     7.184464    -5.027260
H     3.530344    -8.989346     1.088054
O     2.854646    -8.358179     1.341093
H     3.329411    -7.552476     1.618660
H     3.584841     8.163599     1.839593
O     2.795015     7.599254     1.952077
H     2.348136     7.835145     2.777815
N    -0.186092    -3.367661     6.713253
H     0.676186    -3.700480     6.388691
H     0.063572    -2.590161     7.224529
