45
Coordinates from ORCA-job grain_mol_opt.QMRegion
  H   -0.06878045357966     -1.27781250079342      3.07460115321322
  O   0.40337871055223     -0.58555466579145      2.58172937138275
  H   -0.06019250484273      0.23715778703860      2.82276138935385
  H   -0.24917818938242     -3.58594449274657      3.66997093121646
  O   -0.63193737562746     -2.78578783117555      4.06724461773059
  H   -0.38389894825782     -2.84060418759740      5.01960803758974
  H   2.03314465973885     -1.79357687098357      2.94595144370041
  O   2.12445869365709     -2.75019437996775      2.80788835132620
  H   1.50758033580347     -2.93385524025476      2.06870665680507
  H   -2.45192806442600      0.24761413231845      3.32843990812216
  O   -2.70439058310324     -0.57633967637911      3.80669930219716
  H   -1.94441359859548     -0.63489077120880      4.42354543385884
  H   -0.85647699032416      0.59633308994891      6.02097361070500
  O   -0.58257240204239      0.05571991212165      5.25355729475082
  H   0.20719677355153     -0.46015357260193      5.55232847900096
  H   0.71130473430054     -5.12281636385284      1.89252091480927
  O   0.20366172509170     -5.18823623504966      2.72761600658693
  H   0.30471129550786     -6.12500807038808      2.97794949123610
  H   1.97471535857843     -3.62605936414523      4.42332380358432
  O   2.09062129790308     -4.10719885679625      5.26931160521650
  H   2.77688065288348     -3.57523017189438      5.73457845787316
  H   4.60238870746309     -2.34778512688735      5.58388418468964
  O   4.29746072903203     -2.85650638774044      6.37531579498257
  H   4.66531894780832     -3.74865525114445      6.22188743210435
  H   2.40951086009810     -5.71408520832458      4.83730585959016
  O   2.80281260703982     -6.57921667335884      4.56359703941708
  H   2.07688917934286     -7.16255987666823      4.31968410697451
  H   2.14322318987875     -0.71109942039055      5.22155278694100
  O   1.63957457062127     -1.16238852369229      5.92709608496606
  H   1.78400722448857     -0.65132751095598      6.73839976276682
  H   -2.24100234979405     -3.18940545702535      4.41156070547851
  O   -3.09314166571646     -3.64732718196756      4.61902069153617
  H   -3.13533328627933     -4.30158402362537      3.89907077851037
  H   -3.55203723863653     -3.58913937802080      7.81910039686120
  O   -3.63814541951238     -2.91190056370262      7.14707644648859
  H   -3.43471098903234     -3.35109985445400      6.28626719569869
  H   0.65465790226083      0.50130799667822      8.95514029075571
  O   0.60438844457576     -0.28500792549950      8.39882347800928
  H   -0.35592707655750     -0.43223966649533      8.28908416288678
  H   -2.60007594393764     -1.48858537889254      7.57921095277038
  O   -2.11773908141395     -0.69157106689842      7.87979186604060
  H   -2.78970003995228     -0.11500947655144      8.26207783604687
  O   -0.18336146978932     -3.38585485756962      6.68289688461089
  H   0.68236704136569     -3.72391265769684      6.37281775050995
  H   0.06279313116869     -2.60640166757950      7.19296437357841
