30
Coordinates from ORCA-job grain_mol_opt.QMRegion
  H   -3.44086106911491      6.42613793594366     -0.56262887439437
  O   -3.26600744162494      7.07588393588166     -1.28900697747205
  H   -3.15340943336717      7.95395378372130     -0.88406757370450
  H   -3.16218089471797      4.92613318662116      1.06309239597106
  O   -3.91711555141700      5.32127507835963      0.58082655975356
  H   -4.36195316833491      5.82303155485730      1.30438577937971
  H   -0.68882422453787      6.32863828077666      5.02734202774729
  O   -1.30202614529654      6.90787014264766      5.55125814753653
  H   -1.27934204165795      7.78789083036476      5.10077712756444
  H   -1.79149212366576      9.68426898944312     -0.80778819818043
  O   -2.61003667171946      9.51135116674496     -0.27399621545382
  H   -3.17025509017473     10.28461915721315     -0.38465849800379
  H   -2.29344992077851      8.71852910687984      1.25135891826208
  O   -2.15369444303896      8.09288864578431      1.99180904567624
  H   -1.36182688836201      7.57014005071999      1.75504296769593
  H   -4.38687037386289      6.41345936808674      3.51345977895640
  O   -4.53004990003154      6.85290276691188      2.65056320180132
  H   -3.66390862707063      7.27671565297162      2.46460794392323
  H   -1.76747987124841      8.98736473853573      3.44833433010558
  O   -1.52318978030383      9.30428210314934      4.34728914822571
  H   -2.37680381588535      9.40426742499002      4.80154169609637
  H   -3.79038624900432      5.33837722413299      5.80433095728888
  O   -3.79767991680597      6.11530874416089      5.21223413014163
  H   -2.83744593280710      6.37328117439840      5.24802233601608
  H   -4.17599867679981      9.08635478958000      6.63166772444056
  O   -4.09181469151141      8.87832352174171      5.69673967282226
  H   -4.14783752822755      7.90018069360810      5.65620681481362
  O   -5.13235876534377      9.68275932728203      2.82204059126374
  H   -5.19704816746123      8.71521089289936      2.77071396920416
  H   -4.96944657099297      9.82658453110753      3.76121992253695
