27
Coordinates from ORCA-job grain_mol_opt.QMRegion
  H   -6.06974377101689     -1.46911452946528     -3.45351341120979
  O   -6.22276397199527     -2.13224186195019     -2.75228974018309
  H   -6.98476912967027     -1.81928698595571     -2.21575998010000
  H   -5.07404367813556      0.04209969966241     -4.84518187298186
  O   -5.50886036052270     -0.79503696945236     -5.08847509601857
  H   -6.35185968582718     -0.57151691338316     -5.50660866897201
  H   -7.35227590902310      1.70736537374892     -5.22301297848117
  O   -7.92760557555035      0.96276963265688     -4.97176762755957
  H   -8.83098239884785      1.36430016874097     -4.94339700913926
  H   -4.02816506924486     -3.09857039838179     -4.93713876745359
  O   -4.14391631033047     -3.03208983728502     -5.91485209359801
  H   -4.51877749347068     -2.14155855502386     -6.01482932752223
  H   -7.91660180795035      0.13766585213005     -1.95539160528519
  O   -7.37787000873078      0.83457877341236     -2.35172683681007
  H   -7.58425418623052      0.86969204993169     -3.31645008784113
  H   -6.95219133306169     -3.44475919050925     -3.60078627377940
  O   -7.51736346631468     -4.12028506248622     -4.05199390942771
  H   -6.89186040066372     -4.65349911531328     -4.60087787811125
  H   -5.15558019814582     -5.83992422907893     -5.53745150087178
  O   -5.82467672662967     -5.20971397717578     -5.85293142672192
  H   -5.29414466276718     -4.40528333410626     -6.04469105611757
  H   -9.05209312492151     -2.93209149255122     -4.04549789385317
  O   -9.59752827251428     -2.15353328032221     -3.83429459704569
  H   -9.31585904929153     -1.50060100099544     -4.48510093944131
  O   -7.74284154601635     -2.16294207125311     -6.30588400596837
  H   -7.92625137027111     -2.43151880716460     -7.20918084488271
  H   -7.62476428604979     -2.98903556017452     -5.80794692693414
