603

H     0.209645     3.026099    -0.679712
O     0.732453     2.358946    -1.174593
H     1.671607     2.488721    -0.902703
H    -0.053470    -1.315938     3.146500
O     0.336935    -0.614583     2.602392
H    -0.141790     0.197955     2.837000
H    -2.388541     2.402124    -0.532232
O    -2.175328     1.930921     0.290719
H    -2.191242     0.983274     0.064804
H    -4.644755     0.533187     2.188576
O    -4.960585    -0.400626     2.201484
H    -4.456692    -0.876971     1.533455
H     0.080678    -0.315388     0.948000
O    -0.118617    -0.078238     0.021646
H     0.218653     0.819229    -0.098526
H    -0.127745    -3.587148     3.771673
O    -0.406434    -2.757503     4.193244
H     0.240681    -2.587440     4.894196
H    -4.872633     2.517264     1.339031
O    -4.231328     2.107872     1.951995
H    -3.389682     2.091853     1.437400
H    -3.244187     3.890174    -2.204879
O    -2.505349     3.293881    -1.976103
H    -2.148296     3.007450    -2.836817
H    -0.105353    -3.811579     0.496660
O     0.234658    -2.993992     0.914307
H    -0.552622    -2.508831     1.228400
H    -2.356596    -1.549919     2.469622
O    -2.168566    -2.014876     1.627884
H    -2.429335    -1.427471     0.899441
H     2.086320    -1.445950    -1.130201
O     2.320590    -1.699693    -0.213653
H     1.532564    -2.128286     0.171565
H    -1.375206     1.815041     1.912921
O    -1.464276     1.416269     2.788732
H    -1.449608     2.127940     3.454457
H     0.222422    -2.707617    -1.576461
O    -0.533898    -2.096713    -1.629076
H    -0.354120    -1.370786    -0.994777
H    -3.420034    -2.935492    -0.390403
O    -2.702842    -3.426206    -0.812930
H    -1.994128    -2.794284    -1.032190
H     2.792860     0.122547     2.924771
O     2.896396    -0.060942     3.885891
H     2.985779     0.832012     4.291256
H    -3.524565     6.370446    -0.533266
O    -3.288436     7.034019    -1.233301
H    -3.146750     7.878833    -0.762446
H     3.916950     0.581426     1.174206
O     2.967191     0.397670     1.292851
H     2.729532    -0.354071     0.712742
H    -5.771929     0.831141    -1.595428
O    -4.861619     1.159438    -1.470779
H    -4.972566     1.987315    -0.958281
H    -1.200199     5.387551     2.214263
O    -1.824273     4.639572     2.098083
H    -1.899938     4.220076     2.960382
H     3.504606     2.760748     0.416906
O     3.254880     2.718447    -0.521811
H     3.587696     1.876606    -0.873793
H     1.505944    -4.699163    -2.262264
O     1.570806    -3.922489    -1.688409
H     2.363923    -3.459800    -2.040773
H    -0.913277    -0.089717    -2.550132
O    -0.280445     0.563701    -2.874917
H    -0.019366     1.145833    -2.138038
H     1.718238    -4.689656    -0.191250
O     1.828411    -5.327600     0.550176
H     1.364724    -6.138843     0.254746
H    -1.215025    -3.270496    -2.884442
O    -1.041686    -3.953050    -3.546103
H    -0.913639    -4.800282    -3.078138
H    -2.761130     3.294761     4.709850
O    -1.779940     3.293237     4.673730
H    -1.484917     2.891104     5.509033
H     0.977857     5.025821     4.075070
O     0.031581     5.256689     4.129372
H    -0.438802     4.452692     4.387573
H    -1.711673    -4.658584    -0.376116
O    -0.945199    -5.198784    -0.093560
H    -1.290640    -5.886436     0.485054
H    -3.916854     5.824021    -2.587972
O    -4.267245     4.989816    -2.917886
H    -4.114351     4.956186    -3.886431
H    -2.408268    -3.700323     1.933953
O    -2.424831    -4.605011     2.308664
H    -1.484525    -4.842114     2.447251
H    -4.684326    -2.988651    -2.895562
O    -3.832581    -3.220149    -3.303948
H    -3.499625    -4.013689    -2.839992
H     0.360854     1.366824     4.611726
O     0.865896     2.127457     4.277765
H     0.914784     2.786193     4.984884
H    -4.638446    -5.180364    -1.569886
O    -5.339492    -4.828387    -0.994322
H    -5.123986    -5.183286    -0.110926
H     2.339399    -6.481190    -4.054995
O     2.004005    -6.153724    -3.200360
H     2.440244    -6.727730    -2.538572
H     0.476039    -3.380720    -4.013728
O     1.277396    -3.012545    -4.438422
H     0.955408    -2.640437    -5.285753
H     1.985100    -1.759379     2.971986
O     2.141882    -2.689641     2.753232
H     1.454695    -2.904041     2.087819
H    -3.006135    -1.815628    -3.209046
O    -2.584854    -0.928710    -3.144241
H    -3.241946    -0.283555    -3.461634
H    -3.180837     4.964701     1.087637
O    -3.963998     5.337613     0.635227
H    -4.378313     5.894252     1.342880
H     0.892218     2.246059     2.587585
O     0.991036     2.242383     1.616142
H     1.718449     1.620337     1.449784
H     0.195119     5.651908    -0.756998
O     0.714798     6.314904    -1.266370
H     0.857068     7.114392    -0.710169
H     0.353427     7.027995     2.593121
O    -0.010070     6.647802     1.776202
H     0.654228     5.978345     1.512640
H    -2.459701     0.202974     3.342744
O    -2.679245    -0.611986     3.847176
H    -1.917410    -0.651099     4.467277
H    -0.868193     0.540789     6.023932
O    -0.595116     0.022417     5.248370
H     0.119426    -0.580601     5.532930
H     0.733676    -5.001655     1.969938
O     0.193092    -5.112575     2.775247
H     0.340068    -6.032954     3.046971
H    -2.094524    -8.097274     0.440693
O    -1.770717    -7.609738     1.225552
H    -2.556208    -7.300092     1.684076
H    -0.379699     6.859701    -2.321701
O    -1.127838     7.279134    -2.818836
H    -1.916337     7.151277    -2.253472
H    -1.104175     4.301775     0.576677
O    -0.733368     4.364127    -0.320213
H    -1.441128     4.121958    -0.951220
H    -4.391874     2.732472     3.515498
O    -4.388391     2.901877     4.480239
H    -4.469775     2.018326     4.888643
H     2.051477    -3.591021     4.232605
O     1.989178    -4.064147     5.085377
H     2.496494    -3.528281     5.715894
H     4.708894    -3.195937     0.822331
O     4.544800    -3.120117    -0.143579
H     3.685078    -2.643798    -0.224371
H    -2.711389    -0.756226    -1.350626
O    -3.037120    -0.487611    -0.475154
H    -3.838777     0.037389    -0.679659
H    -1.612753    -0.764130    -4.632639
O    -1.107553    -0.546996    -5.437355
H    -0.398099     0.050350    -5.153014
H     1.802756    -1.715431    -3.386818
O     1.895767    -0.969174    -2.763168
H     1.117263    -0.392933    -2.891621
H     3.685016    -3.125271     2.535623
O     4.643357    -3.357019     2.461839
H     4.691727    -4.317269     2.588181
H     3.451935    -6.127186     3.106431
O     3.806883    -5.922211     2.205569
H     3.067176    -5.579289     1.663762
H    -3.341764     1.605255    -4.172679
O    -4.185668     1.133366    -3.980634
H    -4.401282     1.277781    -3.023334
H    -5.074217     4.135469     0.077927
O    -5.511906     3.268936    -0.025268
H    -6.443115     3.387245    -0.304776
H     6.745522    -1.179302    -1.383119
O     5.974602    -1.031365    -0.829021
H     5.557167    -1.899684    -0.630742
H     4.605196    -3.167333    -2.487981
O     3.736169    -2.996912    -2.901716
H     3.738531    -3.614801    -3.658569
H     4.457773    -2.301659     5.601854
O     4.127623    -2.769217     6.399000
H     4.469164    -3.669885     6.308030
H    -0.737266     6.326006     5.079092
O    -1.333495     6.900533     5.619068
H    -1.349003     7.778022     5.178493
H     4.708602    -0.136205    -1.481010
O     3.940065     0.405618    -1.741486
H     3.247433    -0.195251    -2.070696
H    -0.743843     4.520594    -4.035107
O    -1.527661     5.062826    -4.241002
H    -1.376431     5.929281    -3.817915
H     0.662905     3.201130    -2.660399
O     0.667774     3.578660    -3.568609
H     0.714532     2.815787    -4.154899
H    -5.360277    -5.207737     1.797162
O    -4.663736    -5.801303     1.439662
H    -3.823078    -5.384745     1.708908
H     7.887698    -1.683537    -4.057036
O     7.631603    -1.371783    -3.156366
H     7.143382    -0.528240    -3.310870
H     3.707919    -5.068945    -5.307735
O     4.471356    -4.695575    -4.828081
H     4.857601    -5.406864    -4.284099
H    -3.760326     0.002873     4.939245
O    -4.359993     0.465640     5.573765
H    -5.018805    -0.193461     5.866506
H     3.482905    -5.944083    -0.538432
O     4.354025    -5.694682    -0.858975
H     4.429327    -4.732423    -0.713720
H     5.004489    -0.332418    -4.176229
O     4.469390    -1.044247    -4.565615
H     4.145239    -1.628396    -3.847586
H    -1.170244     1.568226    -3.936508
O    -1.822281     2.188435    -4.320098
H    -1.467045     2.521305    -5.166904
H     4.899505    -6.320736    -2.337083
O     5.231990    -6.644908    -3.203200
H     6.050706    -7.125031    -3.017799
H     8.752691    -5.085332    -2.949455
O     8.063912    -5.505112    -2.389337
H     8.097825    -6.462111    -2.493759
H     2.346526     4.715758     0.446593
O     1.769232     4.696347     1.219189
H     1.412952     3.775660     1.296833
H    -4.389921    -2.649713     4.234947
O    -5.284765    -2.311094     4.034899
H    -5.150164    -1.529232     3.459829
H    -5.826553    -3.209814     1.323739
O    -6.287125    -3.768049     1.992609
H    -6.097255    -3.333153     2.843140
H     1.710651     3.458312     6.857900
O     1.085731     3.973242     6.325802
H     0.304018     4.125173     6.899473
H     5.021705    -2.178589     3.597227
O     5.047089    -1.457875     4.259359
H     4.234757    -0.900476     4.106670
H     2.429896    -5.584897     4.825735
O     2.808321    -6.466614     4.557034
H     2.061662    -7.048261     4.390091
H     2.259373    -4.513688    -6.803882
O     2.093092    -5.002872    -5.988146
H     1.828693    -4.312524    -5.331636
H     6.457993    -4.096672    -0.530050
O     7.212054    -4.503092    -0.071261
H     7.717410    -4.923817    -0.794568
H    -1.700270     4.474871     7.705151
O    -0.800588     4.573753     8.088440
H    -0.620836     5.533140     8.113380
H    -5.125451     5.686773    -5.583503
O    -4.516914     4.924068    -5.605869
H    -3.761284     5.139921    -6.173461
H     3.277636    -2.522359    -8.450958
O     3.192566    -3.055796    -7.649871
H     4.070152    -3.030785    -7.223126
H    -0.663031     8.822221    -2.272966
O    -0.539819     9.650460    -1.753815
H     0.223975     9.476516    -1.178932
H     2.092224    -0.920161     5.202071
O     1.522642    -1.448348     5.790513
H     1.616064    -1.102593     6.687649
H     5.207746    -2.019488    -5.711031
O     5.553876    -2.784932    -6.234345
H     5.281780    -3.575634    -5.717094
H     5.761226    -5.289692     4.585520
O     5.188998    -5.149798     5.370735
H     4.456339    -5.772826     5.280791
H    -3.947024     1.129235     7.013229
O    -3.753499     1.604619     7.856952
H    -4.629472     1.988961     8.120151
H    -1.851859     9.607368    -0.737051
O    -2.711006     9.479487    -0.260661
H    -3.323926     10.107413    -0.646684
H    -5.948239     4.679305    -2.924859
O    -6.857551     4.559381    -3.267049
H    -6.767819     3.857618    -3.944867
H     0.112520    -7.069649    -1.153732
O     0.579376    -7.505696    -0.407755
H    -0.097879    -7.701937     0.242726
H    -7.634107     3.778090    -1.956757
O    -7.892986     3.190235    -1.216515
H    -7.749656     2.281980    -1.557111
H     4.002357    -0.899866     6.973563
O     4.010661     0.064010     6.962688
H     4.822626     0.355484     6.531327
H     2.261151     5.793777    -1.183811
O     3.197339     5.502104    -1.072118
H     3.372699     4.962965    -1.866246
H     6.499495    -5.888941     0.588512
O     6.167812    -6.617090     1.161199
H     5.258949    -6.341165     1.391111
H    -3.843906     4.712062     7.789858
O    -3.278218     4.250495     7.129162
H    -3.470265     3.306757     7.239300
H     5.783591    -7.943825     0.113622
O     5.497528    -8.631273    -0.523585
H     4.665849    -8.308902    -0.915730
H    -0.529943     2.028651     7.692472
O    -1.164759     1.963570     6.958782
H    -2.032175     1.820824     7.357292
H    -6.367859    -0.135562     1.073187
O    -6.690122    -0.218888     0.160994
H    -7.608520    -0.490686     0.180989
H    -5.357439    -3.075618    -0.582258
O    -5.104524    -2.373579     0.043421
H    -5.676007    -1.601277    -0.142161
H     4.323933     5.576544     0.310885
O     4.659786     5.676569     1.215435
H     3.965942     6.185912     1.669785
H    -9.034996    -1.759359    -2.237475
O    -8.485401    -1.557917    -1.452642
H    -8.610295    -2.295218    -0.815240
H    -5.529325     3.463442    -5.515750
O    -6.044792     2.751789    -5.100384
H    -5.376550     2.166827    -4.688639
H     3.180565    -0.886161    -5.667425
O     2.323696    -1.006847    -6.131301
H     2.408997    -1.855405    -6.605529
H     8.114501    -1.341787    -6.052831
O     8.124617    -2.206169    -5.597094
H     7.268203    -2.606634    -5.846212
H     7.617099     0.998344    -6.330872
O     7.428288     0.149957    -6.744020
H     6.446925     0.098997    -6.778340
H    -7.841950    -3.708284     0.941542
O    -8.522046    -3.601673     0.258794
H    -8.424369    -4.360566    -0.343641
H    -2.402598     8.727302     1.301922
O    -2.249269     8.138336     2.054115
H    -1.478942     7.586396     1.829021
H    -4.431205     6.421972     3.508737
O    -4.604004     6.848320     2.652919
H    -3.841715     7.435416     2.511969
H     3.400571     3.447247    -3.586531
O     3.246261     4.416205    -3.491988
H     2.281044     4.479773    -3.597265
H    -6.109936    -1.615526    -3.432949
O    -6.190199    -2.195540    -2.649258
H    -6.973355    -1.889713    -2.138478
H     6.491075     1.046217     4.722367
O     6.095116     1.584233     5.424278
H     6.283212     2.503441     5.134941
H     1.357923     1.722559    -5.828368
O     1.165924     1.125918    -5.074071
H     1.529721     0.263469    -5.345387
H    -2.456195     2.946408     10.488372
O    -2.243520     2.039292     10.213797
H    -2.842749     1.839503     9.482709
H     7.657133    -0.492248     3.059073
O     6.898733     0.069799     3.228498
H     6.208943    -0.531569     3.610659
H    -5.639454    -8.065985    -0.697819
O    -4.902846    -8.134326    -0.053350
H    -4.906384    -7.317507     0.469378
H    -5.176567    -0.126550    -4.706950
O    -5.793265    -0.838941    -4.945887
H    -6.632466    -0.398176    -5.141569
H     1.884275    -0.196188    -7.523603
O     1.680181     0.276020    -8.366682
H     2.255692    -0.128150    -9.021461
H     4.863816    -1.386516    -9.320663
O     3.937729    -1.158444    -9.600413
H     3.915325    -1.275555    -10.549497
H     7.322752    -2.517273     4.117026
O     7.783879    -2.670073     3.270229
H     7.472137    -3.568352     3.033286
H     6.831824    -5.895596     2.588459
O     7.041231    -5.323954     3.359535
H     7.880049    -5.679255     3.740533
H    -1.811269     8.937244     3.504626
O    -1.561843     9.241521     4.402627
H    -2.409720     9.372630     4.860206
H    -7.392566     1.557752    -5.235680
O    -7.965826     0.812680    -4.989808
H    -8.867888     1.211098    -4.911415
H     6.919413    -1.074354    -8.425476
O     6.337882    -1.796084    -8.688221
H     6.112499    -2.246706    -7.856013
H    -1.688716     6.239262    -7.017441
O    -2.084795     5.413220    -6.743592
H    -1.834005     5.282049    -5.780603
H     0.030045     3.298421     9.022199
O     0.228719     2.378646     9.276020
H    -0.568059     2.113244     9.784280
H     6.765053    -2.775100    -2.728030
O     6.236268    -3.520561    -2.386811
H     6.704238    -4.330584    -2.636529
H    -4.073926    -3.079361    -4.939952
O    -4.230384    -2.966195    -5.904330
H    -4.778954    -2.173906    -5.958615
H     2.009194     2.174302     8.458747
O     2.671025     2.287703     7.766894
H     3.094282     1.418272     7.650322
H    -6.893257    -5.213901    -1.386653
O    -7.809043    -5.484447    -1.630268
H    -7.945280    -5.081355    -2.512573
H    -3.808124     5.242186     5.706703
O    -3.777702     6.011012     5.116292
H    -2.843893     6.306543     5.208441
H    -7.877959     0.075014    -1.951039
O    -7.390020     0.799465    -2.365255
H    -7.620606     0.788859    -3.317950
H     5.850051     0.130804     0.393563
O     5.628756     0.851689     1.015527
H     6.141442     0.657158     1.826460
H    -6.189768     3.293373     7.410010
O    -6.059280     2.774661     8.237954
H    -6.658868     2.012702     8.150565
H     2.298492    -8.076199    -0.857153
O     2.973355    -8.062581    -1.555507
H     2.746744    -8.776192    -2.168592
H    -2.743116    -3.965563    -6.197137
O    -1.988147    -4.530992    -5.967645
H    -1.710159    -4.239775    -5.070893
H    -5.623760     3.745928     5.322047
O    -6.271825     4.141248     5.941104
H    -6.109391     5.085493     5.927991
H    -1.006282    -7.118750    -3.169537
O    -0.533229    -6.448805    -2.642067
H     0.373124    -6.378059    -3.025225
H     4.465994     2.012797     5.116633
O     3.523499     2.250218     4.998825
H     3.141464     2.266198     5.881692
H     4.130857     4.651969     6.291611
O     4.209461     5.382495     5.673700
H     3.640186     5.141937     4.904107
H     2.781555     3.612332     3.915702
O     2.602678     4.552345     3.750760
H     2.480629     4.651522     2.784731
H     9.403522     0.216245    -1.093734
O     8.596245     0.375642    -0.601228
H     8.424632    -0.442218    -0.105259
H    -2.070185     5.305845     10.656461
O    -2.790849     4.676216     10.889114
H    -3.007280     4.852687     11.804897
H     7.987832    -3.007330     0.305905
O     8.404724    -2.161517     0.570454
H     8.338059    -2.170681     1.532318
H     5.386391     3.663323     3.511735
O     6.044041     3.928243     4.176672
H     5.632382     4.645685     4.680066
H    -4.179955     5.006084     9.795387
O    -4.814961     5.156662     9.074965
H    -5.425908     4.407294     9.073550
H    -7.003451    -3.488725    -3.474507
O    -7.624306    -4.101032    -3.921806
H    -7.104476    -4.541973    -4.625601
H     0.057609     6.116691     10.772129
O    -0.807980     6.447174     10.527157
H    -0.694772     6.878454     9.660862
H     2.589529     1.496218    -4.113827
O     3.468274     1.849470    -3.877200
H     3.790726     1.334621    -3.107513
H    -6.943434    -0.236176     7.233004
O    -7.452258     0.541556     7.515031
H    -8.077343     0.724661     6.812542
H    -2.721909    -9.881234    -0.833502
O    -2.660267    -8.939464    -0.993187
H    -3.565991    -8.574142    -0.749927
H    -10.072145     3.063206    -4.875048
O    -10.187525     2.145414    -4.594683
H    -10.401008     2.228581    -3.644350
H    -2.041455    -3.034951     4.613639
O    -2.915730    -3.475979     4.685150
H    -2.910848    -4.093423     3.928575
H    -0.151340    -7.990076     2.477041
O     0.675942    -7.778503     2.922687
H     1.393083    -8.073399     2.334057
H     6.465836    -2.242010     6.400900
O     7.061759    -2.873689     5.982692
H     6.561110    -3.704378     6.004512
H    -5.241578    -2.018631     6.951901
O    -5.919630    -1.521015     6.469940
H    -5.905266    -1.897429     5.560493
H     0.827535     3.033459    -7.117767
O     1.745380     2.703666    -7.176459
H     1.730743     1.956552    -7.802737
H    -3.937120     8.743264     6.685036
O    -3.937537     8.741644     5.727665
H    -4.062355     7.814107     5.459731
H    -2.066079     10.308760    -2.728534
O    -2.968711     10.489492    -3.027937
H    -2.899573     11.123914    -3.740679
H     9.283239    -3.062194     4.196037
O     9.917955    -3.376907     4.880257
H     9.447129    -3.176187     5.698403
H    -0.730537    -5.999128    -5.846237
O    -0.025606    -6.565190    -5.515017
H     0.808830    -6.102603    -5.734440
H     1.829646     8.271948     0.662317
O     1.523770     8.593938    -0.214298
H     2.337054     8.633221    -0.746811
H     3.490809     2.932953    -6.672200
O     4.319745     2.643267    -6.265239
H     4.077103     2.368963    -5.355846
H     3.734062     7.124883    -1.237559
O     3.938292     8.060934    -1.451031
H     4.305349     8.005741    -2.345292
H     4.387664    -0.002319    -7.925776
O     4.767053     0.143758    -7.057328
H     4.584797     1.075308    -6.812583
H     6.038936     1.935312    -0.492613
O     6.602436     2.129041    -1.255555
H     7.427914     1.650295    -1.063601
H     6.702023    -8.427506    -1.631790
O     7.337429    -8.216474    -2.368781
H     7.698262    -9.051211    -2.662651
H    -5.296441    -5.795406    -5.401736
O    -5.915105    -5.123894    -5.714591
H    -5.365385    -4.354934    -5.952223
H     0.704590     7.164742     7.601089
O    -0.196101     7.190953     7.962823
H    -0.753642     7.205611     7.146743
H    -8.892662    -2.845493    -4.085530
O    -9.413568    -2.037643    -3.916272
H    -9.129839    -1.372096    -4.546752
H    -2.396939    -5.994474    -2.144762
O    -3.275970    -5.708841    -2.411153
H    -3.465033    -6.083222    -3.296623
H    -2.981586    -5.904430    -5.409440
O    -3.579572    -6.515147    -4.936033
H    -3.096388    -7.335017    -4.771094
H    -1.399892     3.725212    -6.980162
O    -0.858079     2.969830    -6.711283
H    -1.095735     2.184810    -7.261019
H    -0.213057     0.417879    -8.218522
O    -1.108612     0.651994    -7.932686
H    -1.281255     0.127719    -7.134647
H    -10.422438     4.038982    -2.709173
O    -10.487615     3.259847    -2.141422
H    -9.656911     3.233982    -1.634694
H     4.591168     4.079766     1.708891
O     4.385104     3.158058     1.986938
H     5.101198     2.583831     1.702996
H     6.485658     1.402814    -4.237858
O     6.185286     0.777804    -3.543461
H     6.217430     1.273037    -2.699555
H     9.645020    -2.220270    -0.954803
O     9.917900    -2.008472    -1.856192
H     9.117251    -1.667574    -2.297334
H     9.976695    -3.313749    -3.128514
O     9.709089    -3.965498    -3.803574
H     9.313074    -3.457688    -4.522452
H    -7.681374    -8.586695    -1.655938
O    -6.944546    -7.991436    -1.785854
H    -7.323235    -7.078845    -1.774501
H     4.156125     6.083316    -3.830462
O     4.816628     6.785257    -3.746739
H     5.653718     6.332254    -3.611554
H     0.105510    -8.171791    -5.224634
O     0.131100    -9.154735    -5.093391
H     0.279275    -9.517816    -5.966634
H    -2.318338    -8.679068    -2.719228
O    -2.086874    -8.414411    -3.629162
H    -1.440641    -9.032104    -3.989898
H     2.198234    -10.816777    -3.511265
O     2.151850    -9.862245    -3.486878
H     1.364742    -9.591939    -4.010873
H     6.832545     3.336102    -4.592584
O     6.889635     2.658227    -5.293859
H     6.094767     2.790957    -5.832610
H    -3.529375    -3.736069     7.724133
O    -3.645909    -2.948094     7.194819
H    -3.396708    -3.186287     6.275732
H    -0.639099    -3.363134    -6.728440
O    -0.009538    -2.631117    -6.737013
H    -0.491235    -1.856302    -6.393783
H     0.674430     0.451442     8.748053
O     0.681161    -0.262907     8.106935
H    -0.241020    -0.552753     8.021620
H    -5.841374     7.360237    -4.235477
O    -6.344943     6.741149    -4.795676
H    -6.629605     6.009521    -4.204231
H    -4.285519     9.096553    -3.250037
O    -4.819980     8.299689    -3.142950
H    -4.409182     7.820189    -2.405357
H    -9.718038     5.785193    -4.621392
O    -10.250017     4.979765    -4.457057
H    -11.131673     5.179824    -4.773468
H     2.788017     6.510413     6.134361
O     1.828039     6.605724     6.234640
H     1.485278     5.692063     6.132590
H     4.805776     8.548180     0.074398
O     5.125422     8.548838     0.994542
H     5.533803     7.685002     1.123952
H     4.152318    -7.423441    -4.361083
O     3.393423    -7.708713    -4.901917
H     3.114608    -8.550108    -4.525671
H     0.389229     8.653131     4.235739
O     1.067133     8.009469     4.005479
H     1.296315     7.516424     4.819277
H     5.234343     4.194804    -3.171346
O     6.195958     4.165594    -3.121234
H     6.407464     3.584284    -2.374049
H    -2.545645    -1.556963     7.575412
O    -2.035698    -0.763199     7.794461
H    -2.661239    -0.138037     8.170922
H    -9.035584     7.925630    -4.122089
O    -8.973578     7.341520    -4.879337
H    -8.016627     7.178757    -5.017004
H     3.554207    -8.983105     1.076706
O     2.877994    -8.349445     1.321703
H     3.352932    -7.545101     1.603264
H     3.591138     8.170527     1.822570
O     2.801642     7.605908     1.936461
H     2.357145     7.840623     2.763810
N     9.419403    -6.010023     4.472221
H     9.715429    -5.082647     4.663098
H     10.079117    -6.361229     3.867504
