39

H    -3.035612    -1.859187    -3.141650
O    -2.596162    -0.976008    -3.110832
H    -3.276637    -0.327863    -3.383074
H    -1.590805    -0.837719    -4.632312
O    -1.037587    -0.581124    -5.398828
H    -0.309898    -0.060497    -5.027260
H    -3.367837     1.567346    -4.110817
O    -4.230825     1.120860    -3.898438
H    -4.415825     1.280528    -2.935633
H    -1.159283     1.571315    -3.887199
O    -1.842806     2.169787    -4.249463
H    -1.523813     2.513568    -5.110556
H    -5.191357     5.770370    -5.520704
O    -4.578553     5.007506    -5.601133
H    -3.815565     5.294802    -6.130998
H    -5.557542     3.492206    -5.563397
O    -6.066487     2.780678    -5.126057
H    -5.384072     2.265398    -4.643697
H    -5.243799    -0.130601    -4.658644
O    -5.841298    -0.851187    -4.937823
H    -6.705405    -0.418131    -5.068310
H    -7.453186     1.641985    -5.198265
O    -8.011481     0.871659    -4.970124
H    -8.922930     1.249756    -4.862419
H    -1.698962     6.271857    -6.951932
O    -2.076001     5.428066    -6.686655
H    -1.826357     5.325617    -5.716768
H    -4.116693    -3.136723    -4.874113
O    -4.243767    -3.030837    -5.846537
H    -4.780644    -2.227139    -5.906270
H    -1.289442     3.771105    -7.000431
O    -0.827688     2.980857    -6.674637
H    -1.047264     2.205657    -7.246014
H    -0.172127     0.398071    -8.228073
O    -1.065105     0.599124    -7.896025
H    -1.131424     0.108717    -7.050131
N    -3.767777     1.449856    -7.061142
H    -3.182449     1.043018    -7.711527
H    -4.657315     1.263156    -7.373680
