603

H     0.202965     3.037145    -0.667616
O     0.726564     2.370479    -1.161567
H     1.665254     2.498855    -0.886792
H    -0.074131    -1.304066     3.157818
O     0.317350    -0.602774     2.614344
H    -0.161220     0.209842     2.848462
H    -2.396874     2.415159    -0.528454
O    -2.185660     1.944627     0.295374
H    -2.201935     0.996724     0.070031
H    -4.661655     0.548525     2.186824
O    -4.978220    -0.384898     2.198874
H    -4.472994    -0.861888     1.532298
H     0.066401    -0.303985     0.959647
O    -0.130747    -0.066113     0.032937
H     0.208864     0.830448    -0.086614
H    -0.152190    -3.574505     3.783260
O    -0.431623    -2.744627     4.203858
H     0.213665    -2.574654     4.906610
H    -4.886085     2.532517     1.336202
O    -4.246356     2.123600     1.951093
H    -3.403583     2.106064     1.438504
H    -3.245972     3.904024    -2.203457
O    -2.507386     3.308313    -1.972171
H    -2.149046     3.020124    -2.831878
H    -0.120547    -3.799762     0.508377
O     0.218562    -2.982159     0.926746
H    -0.569324    -2.496680     1.238670
H    -2.375990    -1.536248     2.474611
O    -2.186059    -2.001286     1.633385
H    -2.444199    -1.413804     0.904115
H     2.077141    -1.436077    -1.112793
O     2.308217    -1.689097    -0.195283
H     1.519160    -2.117882     0.187566
H    -1.390840     1.827925     1.919940
O    -1.482766     1.430084     2.795824
H    -1.468219     2.141591     3.461481
H     0.213770    -2.696405    -1.564223
O    -0.541892    -2.084778    -1.618988
H    -0.363398    -1.359219    -0.983996
H    -3.432349    -2.921309    -0.388296
O    -2.714291    -3.412516    -0.808714
H    -2.004376    -2.781290    -1.026003
H     2.772897     0.133512     2.943547
O     2.871115    -0.049720     3.905130
H     2.962479     0.842729     4.310814
H    -3.529940     6.384474    -0.533282
O    -3.289808     7.047873    -1.232165
H    -3.150845     7.892985    -0.761320
H     3.903124     0.590040     1.197047
O     2.952290     0.408557     1.311665
H     2.716062    -0.343997     0.732048
H    -5.778057     0.846621    -1.600779
O    -4.867919     1.174507    -1.473491
H    -4.980020     2.002262    -0.961188
H    -1.217773     5.397290     2.222677
O    -1.841053     4.650024     2.105138
H    -1.919593     4.230038     2.967030
H     3.495051     2.769284     0.438015
O     3.246871     2.728179    -0.501420
H     3.579997     1.886192    -0.852972
H     1.497962    -4.688911    -2.245714
O     1.561551    -3.911884    -1.672142
H     2.356351    -3.450258    -2.022158
H    -0.917377    -0.078235    -2.541547
O    -0.283701     0.575316    -2.864513
H    -0.023993     1.156668    -2.126693
H     1.704278    -4.679157    -0.174244
O     1.810967    -5.316677     0.567973
H     1.348294    -6.127924     0.270992
H    -1.220378    -3.258549    -2.875805
O    -1.045828    -3.941156    -3.537048
H    -0.919427    -4.788508    -3.068754
H    -2.782021     3.310071     4.712745
O    -1.800536     3.311030     4.679224
H    -1.508059     2.906716     5.514645
H     0.962358     5.033222     4.089988
O     0.017083     5.273769     4.136136
H    -0.459234     4.472346     4.393603
H    -1.725257    -4.645746    -0.368919
O    -0.959991    -5.186244    -0.083860
H    -1.307550    -5.873801     0.493594
H    -3.916584     5.838298    -2.589452
O    -4.266290     5.003912    -2.919367
H    -4.111668     4.969738    -3.887724
H    -2.427626    -3.686635     1.938973
O    -2.445852    -4.591134     2.313974
H    -1.506058    -4.828866     2.455105
H    -4.689491    -2.974108    -2.896932
O    -3.836689    -3.206008    -3.302849
H    -3.505624    -3.999940    -2.838118
H     0.338246     1.378746     4.623750
O     0.841575     2.141101     4.290754
H     0.891611     2.797387     4.999940
H    -4.648990    -5.165493    -1.570881
O    -5.351326    -4.812732    -0.997336
H    -5.138689    -5.167878    -0.113334
H     2.335096    -6.471933    -4.035656
O     1.997273    -6.143908    -3.182148
H     2.431429    -6.718123    -2.519026
H     0.473799    -3.370005    -4.000470
O     1.276487    -3.001999    -4.422768
H     0.957308    -2.630237    -5.271278
H     1.965287    -1.749019     2.989508
O     2.121029    -2.679581     2.771276
H     1.435647    -2.893038     2.103763
H    -3.009485    -1.802420    -3.205706
O    -2.587937    -0.915639    -3.139718
H    -3.243679    -0.270325    -3.459402
H    -3.193217     4.977324     1.089004
O    -3.973257     5.353123     0.634037
H    -4.389912     5.909008     1.340771
H     0.875567     2.257185     2.601164
O     0.977798     2.255097     1.630049
H     1.704514     1.631529     1.465364
H     0.188748     5.661036    -0.748909
O     0.710441     6.324421    -1.256212
H     0.847031     7.124119    -0.700789
H     0.228257     6.767459     2.715395
O    -0.023788     6.569586     1.802089
H     0.627104     5.891037     1.516476
H    -2.480395     0.216733     3.347303
O    -2.701606    -0.597837     3.851349
H    -1.941414    -0.637258     4.473539
H    -0.896014     0.554099     6.032891
O    -0.620744     0.036385     5.257697
H     0.092428    -0.567629     5.544475
H     0.713351    -4.990143     1.984132
O     0.170496    -5.100475     2.788095
H     0.315494    -6.021206     3.059704
H    -2.112791    -8.084056     0.447531
O    -1.791103    -7.596429     1.233228
H    -2.577811    -7.286178     1.689240
H    -0.380242     6.870330    -2.314467
O    -1.126261     7.292461    -2.811955
H    -1.916719     7.163889    -2.249367
H    -1.115608     4.312628     0.583702
O    -0.741580     4.378316    -0.311369
H    -1.446241     4.134106    -0.945474
H    -4.410863     2.747764     3.514347
O    -4.408563     2.917786     4.478952
H    -4.492711     2.034501     4.887581
H     2.025355    -3.579524     4.250166
O     1.961067    -4.052454     5.102923
H     2.467805    -3.516295     5.734330
H     4.691125    -3.187952     0.846894
O     4.531239    -3.111287    -0.119670
H     3.672096    -2.634535    -0.203099
H    -2.719320    -0.742837    -1.346623
O    -3.047044    -0.473085    -0.472210
H    -3.848225     0.051596    -0.679181
H    -1.611326    -0.752138    -4.625635
O    -1.104047    -0.534910    -5.428996
H    -0.394526     0.061367    -5.142683
H     1.800146    -1.705739    -3.369906
O     1.891645    -0.959141    -2.746364
H     1.113862    -0.382701    -2.877356
H     3.665131    -3.117518     2.557808
O     4.624306    -3.345817     2.484798
H     4.679654    -4.305987     2.611103
H     3.429347    -6.117172     3.127744
O     3.785404    -5.915418     2.227862
H     3.048048    -5.569662     1.684897
H    -3.339863     1.618818    -4.171035
O    -4.184749     1.147767    -3.981417
H    -4.403030     1.292093    -3.024738
H    -5.083562     4.150937     0.073580
O    -5.521018     3.284550    -0.029870
H    -6.451471     3.402760    -0.312414
H     6.737610    -1.172725    -1.352005
O     5.964504    -1.023748    -0.801226
H     5.546144    -1.891933    -0.604203
H     4.598842    -3.159535    -2.462972
O     3.731187    -2.988131    -2.879419
H     3.735280    -3.606482    -3.635935
H     4.434616    -2.291237     5.630099
O     4.090984    -2.757754     6.422345
H     4.426890    -3.662402     6.340377
H    -0.758476     6.336253     5.089906
O    -1.355894     6.912646     5.625296
H    -1.372288     7.790521     5.186061
H     4.701420    -0.127450    -1.456293
O     3.933863     0.414797    -1.719213
H     3.242049    -0.186109    -2.050038
H    -0.740358     4.531827    -4.026637
O    -1.523225     5.074713    -4.234580
H    -1.372593     5.941287    -3.812181
H     0.661669     3.211504    -2.647818
O     0.669339     3.589585    -3.555811
H     0.717204     2.826742    -4.142127
H    -5.380419    -5.191876     1.794198
O    -4.683273    -5.785861     1.438662
H    -3.843067    -5.369954     1.710304
H     7.886316    -1.678601    -4.023361
O     7.627777    -1.366103    -3.123661
H     7.140686    -0.522409    -3.279738
H     3.708327    -5.061135    -5.284852
O     4.470344    -4.687656    -4.803156
H     4.854935    -5.398977    -4.257775
H    -3.785687     0.018018     4.940073
O    -4.386998     0.481756     5.572289
H    -5.046921    -0.176880     5.863724
H     3.469322    -5.935341    -0.515011
O     4.341934    -5.687360    -0.832492
H     4.417783    -4.725174    -0.687769
H     5.004919    -0.325335    -4.150490
O     4.469783    -1.036261    -4.541344
H     4.143876    -1.620721    -3.824235
H    -1.169402     1.579990    -3.928744
O    -1.819529     2.201435    -4.313707
H    -1.462054     2.533170    -5.160060
H     4.890860    -6.312973    -2.310349
O     5.224311    -6.636922    -3.176136
H     6.042366    -7.117770    -2.989420
H     8.745898    -5.080948    -2.910314
O     8.054359    -5.499284    -2.352758
H     8.089501    -6.456548    -2.455384
H     2.337145     4.727249     0.464955
O     1.754375     4.707672     1.233501
H     1.400556     3.785710     1.311276
H    -4.415046    -2.634262     4.234369
O    -5.309071    -2.294962     4.031712
H    -5.172267    -1.513312     3.456979
H    -5.843862    -3.193613     1.319142
O    -6.306795    -3.751327     1.986748
H    -6.118986    -3.316578     2.837804
H     1.683689     3.471229     6.872623
O     1.062125     3.988590     6.338676
H     0.278403     4.140268     6.910130
H     5.001521    -2.164857     3.624593
O     5.021183    -1.447057     4.289207
H     4.209270    -0.891087     4.132654
H     2.391774    -5.574144     4.842884
O     2.772329    -6.457556     4.582207
H     2.027671    -7.039379     4.407542
H     2.264223    -4.504536    -6.785470
O     2.094937    -4.993493    -5.970231
H     1.829678    -4.302974    -5.314386
H     6.443315    -4.095127    -0.495776
O     7.196540    -4.497987    -0.032410
H     7.704477    -4.920032    -0.753144
H    -1.729637     4.489305     7.711208
O    -0.830268     4.586356     8.095273
H    -0.649125     5.545513     8.123582
H    -5.116925     5.701279    -5.587506
O    -4.508388     4.938475    -5.607383
H    -3.751498     5.153358    -6.173629
H     3.288523    -2.514219    -8.429991
O     3.200485    -3.047096    -7.628874
H     4.076963    -3.023178    -7.199693
H    -0.662915     8.833501    -2.266049
O    -0.540128     9.661971    -1.746656
H     0.220785     9.488972    -1.169008
H     2.065521    -0.910310     5.219825
O     1.491963    -1.436544     5.806125
H     1.585546    -1.092402     6.703844
H     5.210947    -2.012553    -5.684641
O     5.557709    -2.778233    -6.207073
H     5.284062    -3.568733    -5.690193
H     5.696349    -5.210929     4.692508
O     5.173578    -5.126698     5.518929
H     4.452615    -5.759219     5.432779
H    -3.977370     1.145095     7.013238
O    -3.785695     1.620960     7.857035
H    -4.662163     2.005588     8.118130
H    -1.855168     9.620777    -0.732674
O    -2.714650     9.492751    -0.257282
H    -3.326818     10.121330    -0.643495
H    -5.947917     4.694619    -2.930969
O    -6.856260     4.575580    -3.275783
H    -6.765258     3.873569    -3.953231
H     0.099466    -7.058211    -1.141009
O     0.563613    -7.494308    -0.393401
H    -0.115743    -7.690128     0.254977
H    -7.637214     3.794962    -1.967529
O    -7.897935     3.207503    -1.227651
H    -7.754956     2.298996    -1.567872
H     3.971603    -0.890235     6.995679
O     3.979074     0.073903     6.986093
H     4.792088     0.364615     6.556313
H     2.257904     5.802546    -1.167539
O     3.194017     5.513000    -1.054535
H     3.370077     4.972166    -1.847457
H     6.554069    -5.922297     0.678440
O     6.185482    -6.659286     1.211216
H     5.280787    -6.382732     1.438039
H    -3.873686     4.727868     7.789914
O    -3.307102     4.266265     7.129845
H    -3.499306     3.322550     7.240308
H     5.767216    -7.938205     0.142486
O     5.480093    -8.624982    -0.495754
H     4.650862    -8.299668    -0.890006
H    -0.561562     2.042484     7.701646
O    -1.194245     1.978587     6.965843
H    -2.062666     1.835706     7.362127
H    -6.382486    -0.119276     1.066782
O    -6.702010    -0.201830     0.153574
H    -7.620517    -0.473513     0.170650
H    -5.369153    -3.060172    -0.585393
O    -5.117517    -2.357901     0.040601
H    -5.688127    -1.585460    -0.146844
H     4.288396     5.480488     0.257913
O     4.708230     5.612370     1.129497
H     4.005748     6.067296     1.628900
H    -9.041108    -1.741281    -2.251327
O    -8.493569    -1.540092    -1.464966
H    -8.620868    -2.277270    -0.827855
H    -5.522418     3.478244    -5.520696
O    -6.039579     2.767320    -5.106276
H    -5.372973     2.181631    -4.692887
H     3.184569    -0.877668    -5.646799
O     2.328938    -0.997490    -6.113234
H     2.415054    -1.846238    -6.587099
H     8.118994    -1.336726    -6.018850
O     8.127310    -2.200908    -5.562828
H     7.271521    -2.601270    -5.814102
H     7.624333     1.003846    -6.298264
O     7.435902     0.155763    -6.712128
H     6.454624     0.105243    -6.748821
H    -7.858618    -3.690750     0.931285
O    -8.536541    -3.583518     0.246480
H    -8.437895    -4.342670    -0.355490
H    -2.414975     8.741711     1.304109
O    -2.259602     8.153823     2.057014
H    -1.493134     7.599060     1.828367
H    -4.448834     6.436757     3.507336
O    -4.617885     6.863017     2.650643
H    -3.855876     7.450632     2.512647
H     3.402100     3.456043    -3.565714
O     3.247947     4.425274    -3.471717
H     2.283093     4.488859    -3.580407
H    -6.112674    -1.600001    -3.438585
O    -6.195402    -2.179561    -2.654847
H    -6.980024    -1.873365    -2.146546
H     6.466043     1.055560     4.750832
O     6.070139     1.593429     5.453291
H     6.258930     2.512745     5.164091
H     1.364525     1.732319    -5.813444
O     1.170142     1.136198    -5.059369
H     1.533859     0.273292    -5.329582
H    -2.494909     2.961615     10.492578
O    -2.282286     2.054315     10.218447
H    -2.879696     1.855067     9.485780
H     7.627233    -0.491122     3.094312
O     6.876525     0.083828     3.262432
H     6.184694    -0.516931     3.641874
H    -5.654611    -8.050284    -0.701238
O    -4.919891    -8.118965    -0.054668
H    -4.924389    -7.302102     0.467947
H    -5.174579    -0.111828    -4.710333
O    -5.791142    -0.823784    -4.950736
H    -6.629520    -0.382551    -5.148856
H     1.894353    -0.186886    -7.506788
O     1.693015     0.285734    -8.350354
H     2.269881    -0.119029    -9.003598
H     4.877857    -1.379298    -9.295231
O     3.952774    -1.150370    -9.577694
H     3.933016    -1.267971    -10.526783
H     7.563799    -2.564898     4.209368
O     7.710879    -2.600264     3.249881
H     7.218236    -3.391367     2.977494
H     6.722903    -5.888513     2.691756
O     6.783791    -5.213594     3.393184
H     7.659513    -5.298385     3.811549
H    -1.825576     8.952610     3.506446
O    -1.567769     9.249357     4.404662
H    -2.412277     9.391162     4.865486
H    -7.387957     1.574009    -5.245505
O    -7.962312     0.829440    -5.000793
H    -8.864392     1.228397    -4.925203
H     6.931324    -1.069023    -8.394306
O     6.349557    -1.789968    -8.658636
H     6.121737    -2.240705    -7.827137
H    -1.675540     6.251146    -7.012041
O    -2.073125     5.425540    -6.739085
H    -1.825191     5.294041    -5.775606
H    -0.003936     3.311339     9.033556
O     0.192618     2.391060     9.287130
H    -0.605459     2.126684     9.793814
H     6.759350    -2.769673    -2.696040
O     6.228983    -3.514345    -2.355876
H     6.698178    -4.324807    -2.602315
H    -4.073361    -3.065462    -4.939636
O    -4.226902    -2.952175    -5.904465
H    -4.774967    -2.159676    -5.960438
H     1.976034     2.186296     8.475496
O     2.638476     2.298742     7.784102
H     3.062546     1.429228     7.670012
H    -6.904356    -5.197284    -1.394075
O    -7.819701    -5.467059    -1.640146
H    -7.953159    -5.064200    -2.522963
H    -3.833666     5.256572     5.706765
O    -3.800202     6.024876     5.115555
H    -2.867113     6.319780     5.212366
H    -7.883563     0.092189    -1.961903
O    -7.393982     0.816353    -2.374747
H    -7.621861     0.805671    -3.328124
H     5.837855     0.137954     0.422514
O     5.615145     0.858762     1.043869
H     6.125531     0.663373     1.856784
H    -6.219801     3.310615     7.403502
O    -6.091776     2.791982     8.231745
H    -6.691673     2.030421     8.142985
H     2.282692    -8.066425    -0.838402
O     2.959729    -8.052872    -1.534584
H     2.735544    -8.766867    -2.148061
H    -2.739614    -3.952780    -6.192977
O    -1.985639    -4.518608    -5.961308
H    -1.710021    -4.227662    -5.063740
H    -5.647052     3.762716     5.316996
O    -6.297027     4.158467     5.933649
H    -6.134004     5.102599     5.921516
H    -1.013505    -7.106778    -3.159880
O    -0.541637    -6.436926    -2.631232
H     0.366057    -6.367136    -3.011587
H     4.441605     2.022952     5.139382
O     3.499529     2.261477     5.019367
H     3.115825     2.275885     5.901555
H     4.157751     4.658064     6.238377
O     4.217002     5.401151     5.625529
H     3.620083     5.134198     4.884140
H     2.761710     3.624644     3.935130
O     2.581319     4.564024     3.767314
H     2.464296     4.659540     2.800304
H     9.394752     0.221406    -1.058708
O     8.587948     0.383633    -0.566246
H     8.412544    -0.435222    -0.072978
H    -2.107476     5.319967     10.661638
O    -2.830073     4.691442     10.891703
H    -3.048764     4.867984     11.806949
H     7.974801    -3.000450     0.337381
O     8.395254    -2.153619     0.593064
H     8.329238    -2.149385     1.555390
H     5.366996     3.672298     3.539339
O     6.023719     3.937498     4.204878
H     5.609830     4.651225     4.712368
H    -4.214822     5.023068     9.794172
O    -4.847455     5.173280     9.071474
H    -5.459213     4.424595     9.069354
H    -7.007273    -3.472536    -3.482505
O    -7.627383    -4.084248    -3.931556
H    -7.105877    -4.525833    -4.633727
H     0.021227     6.130882     10.783629
O    -0.844419     6.458563     10.535123
H    -0.727920     6.892535     9.670772
H     2.591254     1.505520    -4.095454
O     3.469102     1.859025    -3.855758
H     3.789485     1.343058    -3.085769
H    -6.975416    -0.218216     7.224798
O    -7.484260     0.560155     7.505002
H    -8.107565     0.743228     6.800934
H    -2.737840    -9.867633    -0.828365
O    -2.675068    -8.925883    -0.987766
H    -3.581233    -8.559955    -0.747270
H    -10.067471     3.081524    -4.892562
O    -10.184020     2.163826    -4.612398
H    -10.400421     2.247133    -3.662761
H    -2.067966    -3.021039     4.619718
O    -2.942837    -3.461322     4.688709
H    -2.936174    -4.078962     3.932295
H    -0.175676    -7.977662     2.489283
O     0.650430    -7.766888     2.937517
H     1.369110    -8.062386     2.350983
H     6.704935    -2.370357     6.402469
O     7.154404    -3.079754     5.938379
H     6.524742    -3.814824     5.899855
H    -5.273997    -2.001840     6.948817
O    -5.950086    -1.503593     6.464734
H    -5.933672    -1.880481     5.555535
H     0.838553     3.043381    -7.104611
O     1.756423     2.713218    -7.160390
H     1.743329     1.965881    -7.786531
H    -3.959095     8.762672     6.682149
O    -3.948990     8.758821     5.724855
H    -4.081538     7.832166     5.458003
H    -2.062233     10.322064    -2.725287
O    -2.964319     10.502338    -3.026233
H    -2.894260     11.137218    -3.738477
H     9.411111    -4.053880     4.054432
O     9.130960    -4.732467     4.676320
H     8.701370    -4.260596     5.400738
H    -0.729449    -5.987799    -5.836125
O    -0.025981    -6.554188    -5.502423
H     0.809505    -6.092488    -5.719692
H     1.815284     8.289259     0.616688
O     1.531882     8.598379    -0.269089
H     2.346388     8.571082    -0.801531
H     3.500410     2.941117    -6.651343
O     4.328144     2.651941    -6.241583
H     4.082617     2.376896    -5.333168
H     3.733376     7.130784    -1.209324
O     3.942351     8.069143    -1.412009
H     4.308820     8.018383    -2.307152
H     4.398891     0.004963    -7.901990
O     4.775499     0.151304    -7.032366
H     4.593378     1.083029    -6.788686
H     6.030941     1.942018    -0.463672
O     6.595966     2.135924    -1.225570
H     7.420730     1.656476    -1.031760
H     6.688712    -8.421727    -1.600701
O     7.324728    -8.210381    -2.337030
H     7.692354    -9.044250    -2.624826
H    -5.296506    -5.780760    -5.404479
O    -5.913784    -5.108740    -5.719006
H    -5.362796    -4.340348    -5.955451
H     0.679346     7.182782     7.613557
O    -0.222263     7.200362     7.973342
H    -0.778944     7.218743     7.158080
H    -8.894520    -2.828002    -4.098703
O    -9.415080    -2.019616    -3.930895
H    -9.129328    -1.354556    -4.560964
H    -2.406439    -5.981306    -2.139371
O    -3.284471    -5.694894    -2.408277
H    -3.471315    -6.069461    -3.294157
H    -2.981654    -5.891458    -5.405604
O    -3.581486    -6.501502    -4.933701
H    -3.099463    -7.321790    -4.767334
H    -1.388885     3.736559    -6.973633
O    -0.848340     2.981135    -6.702493
H    -1.084459     2.195991    -7.252900
H    -0.200537     0.428646    -8.207836
O    -1.096575     0.663801    -7.924318
H    -1.272109     0.139276    -7.127072
H    -10.423147     4.057842    -2.727816
O    -10.490357     3.278854    -2.160098
H    -9.661321     3.252609    -1.650791
H     4.587329     4.083712     1.727267
O     4.369380     3.165147     2.009770
H     5.084493     2.585857     1.733628
H     6.487427     1.409443    -4.208249
O     6.183948     0.785131    -3.514762
H     6.214826     1.279888    -2.670512
H     9.634802    -2.215664    -0.918893
O     9.911594    -2.000508    -1.818454
H     9.111201    -1.662030    -2.261937
H     9.972420    -3.309173    -3.088546
O     9.705725    -3.960912    -3.763904
H     9.312226    -3.453093    -4.484108
H    -7.694063    -8.569676    -1.665303
O    -6.956519    -7.974814    -1.792964
H    -7.334682    -7.062035    -1.782750
H     4.160193     6.093441    -3.806462
O     4.820162     6.795013    -3.714476
H     5.657156     6.340079    -3.585077
H     0.103382    -8.160947    -5.211594
O     0.127477    -9.143862    -5.080099
H     0.278497    -9.507300    -5.952707
H    -2.327944    -8.666163    -2.713093
O    -2.093916    -8.401645    -3.622392
H    -1.447064    -9.019742    -3.981382
H     2.189621    -10.807108    -3.492089
O     2.143094    -9.852593    -3.467427
H     1.357743    -9.581933    -3.993765
H     6.836688     3.342844    -4.562306
O     6.895286     2.665037    -5.263355
H     6.101941     2.797708    -5.804357
H    -3.565484    -3.720427     7.726132
O    -3.679818    -2.932497     7.196273
H    -3.428112    -3.171126     6.277992
H    -0.633501    -3.352082    -6.718349
O    -0.003633    -2.620293    -6.725267
H    -0.485920    -1.845260    -6.383509
H     0.638812     0.463947     8.761380
O     0.646457    -0.250169     8.120030
H    -0.275589    -0.539618     8.032597
H    -5.835515     7.375468    -4.241891
O    -6.337574     6.756468    -4.803409
H    -6.624819     6.025273    -4.212655
H    -4.281188     9.111042    -3.252205
O    -4.816176     8.314352    -3.146517
H    -4.408032     7.834746    -2.407692
H    -9.712199     5.803223    -4.638222
O    -10.245098     4.998180    -4.475145
H    -11.125740     5.198674    -4.794119
H     2.712130     6.525603     6.223422
O     1.744041     6.591917     6.258997
H     1.458540     5.653914     6.180864
H     4.787058     8.543405     0.027554
O     5.140041     8.573166     0.939947
H     5.551828     7.700970     1.031276
H     4.147934    -7.415291    -4.336987
O     3.390017    -7.700029    -4.879566
H     3.110142    -8.541395    -4.504027
H     0.239805     8.724595     4.305621
O     1.015248     8.171351     4.118893
H     1.178413     7.613772     4.914590
H     5.235138     4.201280    -3.145902
O     6.196556     4.173670    -3.091617
H     6.405725     3.590486    -2.345063
H    -2.579677    -1.542102     7.579906
O    -2.069916    -0.748387     7.799521
H    -2.695753    -0.123018     8.175093
H    -9.029418     7.943493    -4.137480
O    -8.965716     7.358907    -4.894213
H    -8.008593     7.195585    -5.029508
H     3.533862    -8.972400     1.095437
O     2.856831    -8.340881     1.343930
H     3.331013    -7.535585     1.624724
H     3.629654     8.095650     1.810164
O     2.810047     7.567191     1.927757
H     2.413467     7.816840     2.775781
N     3.523868     9.666802     4.410742
H     3.766487     10.013628     3.546603
H     2.599479     9.387058     4.317681
