36

H    -0.886418     6.254429     4.969592
O    -1.502863     6.845690     5.476684
H    -1.429818     7.711547     5.011168
H    -1.771986     4.330828     7.618302
O    -0.916012     4.491312     8.079763
H    -0.699068     5.438090     7.991899
H    -3.914927     4.539463     7.587122
O    -3.324781     4.030682     6.995217
H    -3.534986     3.106861     7.233085
H    -1.799420     8.958291     3.416206
O    -1.451797     9.302756     4.268270
H    -2.251068     9.426995     4.821834
H    -3.970734     5.034854     5.298250
O    -4.056783     5.978215     5.106433
H    -3.134493     6.306034     5.225533
H    -5.770817     3.609837     5.316990
O    -6.477430     3.987593     5.882697
H    -6.252198     4.922399     5.938110
H    -2.176863     5.256435     10.597019
O    -2.880559     4.613249     10.829198
H    -3.018314     4.702187     11.775029
H    -4.329858     4.887501     9.735123
O    -4.939437     5.088379     8.997427
H    -5.548612     4.332738     8.949248
H    -0.861779     7.391309     10.870635
O    -1.271414     6.805001     10.230514
H    -0.780568     6.955627     9.383098
H    -3.557448     8.634587     6.675610
O    -3.737735     9.105084     5.840121
H    -4.282120     8.479033     5.348770
H     0.621257     7.054859     7.417433
O    -0.275761     7.119857     7.802113
H    -0.849748     7.129515     6.986136
N    -3.448008     7.558296     8.235024
H    -4.132855     6.895116     8.397049
H    -2.867338     7.519805     9.007015
