24

H     2.315750    -6.578997    -3.927655
O     1.975198    -6.240461    -3.089026
H     2.375302    -6.843940    -2.422855
H     3.692266    -5.078067    -5.239782
O     4.462030    -4.732342    -4.749845
H     4.839627    -5.435226    -4.190260
H     2.223193    -4.447269    -6.746640
O     2.075000    -4.964503    -5.938624
H     1.822139    -4.263948    -5.274237
H    -0.885496    -5.909608    -5.882281
O    -0.176696    -6.489777    -5.571856
H     0.643205    -5.979214    -5.724376
H    -0.029033    -8.137817    -5.117047
O     0.141004    -9.106116    -5.009463
H     0.615659    -9.287068    -5.840341
H     2.242039    -10.765416    -3.528421
O     2.103297    -9.824766    -3.413776
H     1.298694    -9.555519    -3.945721
H     4.235386    -7.550683    -4.327789
O     3.471346    -7.890329    -4.831532
H     3.181664    -8.674087    -4.319371
N     1.979770    -8.745401    -7.104882
H     1.587674    -7.982160    -7.541837
H     2.651116    -8.358082    -6.513559
