27
Coordinates from ORCA-job grain_mol_opt.QMRegion
  H   7.67936987405387      0.91886371877494     -6.24329814719663
  O   7.45225069437470      0.18328214129604     -6.82944431608851
  H   6.46718236058086      0.07432919918994     -6.71035726247365
  H   1.93888989328338     -0.20899505872812     -7.47721437262507
  O   1.69873738304489      0.28463448456654     -8.30112285854317
  H   2.37452616734025      0.02932185384207     -8.94315301031541
  H   5.03146592394259     -1.07062978995904     -9.43032125577413
  O   4.34073508988226     -0.38102951292322     -9.55176209577277
  H   4.86523702368398      0.43535981764838     -9.65106246462750
  H   7.10113402060609     -1.50710010898207     -8.52469408282803
  O   6.36016991176970     -2.10116889858170     -8.69249476405936
  H   6.11456901600798     -2.40437950226206     -7.79592557224695
  H   0.77283677411690      3.01182049122213     -7.03936493355633
  O   1.70818505939398      2.71578471179800     -7.13087516267534
  H   1.68967110375597      1.93480303781620     -7.73287230768408
  H   3.42886210777956      2.91734401541673     -6.55742144779024
  O   4.28075359273043      2.59276103471834     -6.20374540656034
  H   4.04359973777012      2.32562712674458     -5.28440978029898
  H   4.55934207293585     -0.13811193551289     -7.75904209448140
  O   4.80817988093168      0.00521212933236     -6.82699226787172
  H   4.51236244357783      0.91879939647652     -6.62902155273128
  H   6.81720446182353      3.34296560180092     -4.46656369119776
  O   6.88253585883218      2.70361376433597     -5.21266045640690
  H   6.05389916214500      2.85615008597845     -5.69958839799492
  O   6.17590029365587      1.79319067071639     -9.09899781311236
  H   5.73985418908315      2.47835106639333     -8.58072033896106
  H   6.73825243304911      1.33808475306648     -8.44705584972002
