24
Coordinates from ORCA-job grain_mol_opt.QMRegion
  H   3.17361456172564     -2.59128855477485     -8.47919515325888
  O   3.11012315492257     -3.05838993260711     -7.63419599407526
  H   3.99528330600358     -3.00212043973924     -7.23658433660338
  H   5.17270577270590     -2.01071211277859     -5.60710773975725
  O   5.54642163101319     -2.75688662448425     -6.14627233339584
  H   5.25797235071896     -3.56309275218263     -5.64789861782784
  H   8.09992995146084     -1.24932004452085     -5.97322118653487
  O   8.19485052169576     -2.16392010714487     -5.63126060522120
  H   7.29560199951743     -2.52731254131937     -5.78373239347726
  H   7.52817404796335      1.13648608862303     -6.28488650569792
  O   7.37821175550294      0.27063707742063     -6.69467883746483
  H   6.39725247707788      0.20462183849957     -6.73178363757072
  H   4.85143025875913     -1.34621386920875     -9.40537670686885
  O   3.91885596143703     -1.13117416201801     -9.64763645441250
  H   3.91673610376412     -1.03316119400892    -10.60275509507450
  H   6.91156097510537     -1.06377427703842     -8.45835120510580
  O   6.37858935755302     -1.83345939852274     -8.69901899920507
  H   6.09290372839653     -2.19375597904607     -7.83688594312308
  H   10.02254209119015     -3.31568837569189     -2.95844832905581
  O   9.87006310967604     -4.00362850056580     -3.64178938800967
  H   9.45184433924122     -3.51911028875484     -4.36549708519583
  O   8.78139218552012     -3.75663343010103     -8.19189781477312
  H   8.07179352803685     -3.28573581586156     -8.64575262161348
  H   8.86809447538811     -3.26696873519899     -7.36244783825979
