33

H     0.408789    -3.289103    -4.085927
O     1.314155    -3.028994    -4.358084
H     1.207451    -2.396748    -5.085905
H    -1.532843    -0.795270    -4.524415
O    -1.008235    -0.610030    -5.328664
H    -0.331474     0.027882    -5.036900
H     2.265963    -4.596782    -6.818306
O     2.110797    -5.037784    -5.973019
H     1.812384    -4.316000    -5.366956
H     3.371606    -2.577296    -8.509315
O     3.267681    -3.069163    -7.673568
H     4.162881    -3.056703    -7.280080
H     3.215334    -0.906888    -5.586674
O     2.371448    -1.083412    -6.067541
H     2.605281    -1.821752    -6.677849
H     1.838460    -0.122135    -7.486767
O     1.370979     0.297333    -8.239746
H     1.350851    -0.396916    -8.918800
H     5.004740    -1.361322    -9.343762
O     4.060894    -1.103499    -9.500546
H     3.976691    -1.018997    -10.453437
H    -2.832245    -3.946036    -6.125628
O    -2.043296    -4.485341    -5.936924
H    -1.768272    -4.216021    -5.028945
H    -0.416117     0.489974    -8.008900
O    -1.361869     0.694434    -7.841116
H    -1.544174     0.236136    -7.005590
H    -0.758963    -3.390507    -6.784338
O    -0.126792    -2.673771    -6.967092
H    -0.491394    -1.921155    -6.460566
N     0.785293    -2.129843    -9.496143
H     0.058708    -2.134923    -10.124453
H     0.373221    -2.377999    -8.636225
