33
Coordinates from ORCA-job grain_mol_opt.QMRegion
  H   3.58153724434510     -2.98052991194323      2.53439360046366
  O   4.54653618132976     -3.21331653783331      2.48244545930627
  H   4.54957772566429     -4.17107742363592      2.63086018290705
  H   3.29151175934002     -6.06961353163237      3.08811599001326
  O   3.72278960261857     -5.82051585210182      2.22918160935016
  H   3.00232860676071     -5.49713948706293      1.64676620823645
  H   3.40518584283011     -5.88313548486756     -0.69991362238582
  O   4.32833067834711     -5.64321798944021     -0.81609043370064
  H   4.35639997775819     -4.66824015612959     -0.69653852520216
  H   2.36936995114650     -5.53615097165897      4.86533834816313
  O   2.71387774736148     -6.44368127717869      4.61728571726259
  H   1.91031738589606     -6.96400980053389      4.48080112719246
  H   5.63937918242321     -5.25920037675462      4.81872733989253
  O   5.21200620051061     -5.14154750321628      5.69770644788675
  H   4.48019378234025     -5.76056968498367      5.73204671069549
  H   6.59557576255327     -5.90635259958412      0.76742519305821
  O   6.21222338285764     -6.63560194017986      1.31342400349959
  H   5.28495623784502     -6.34573490338895      1.42972819613277
  H   5.71738521305354     -7.96284349801932      0.12322354207455
  O   5.46831713543882     -8.70927928621418     -0.45406448855975
  H   4.62054427373178     -8.43625844693405     -0.85242355926763
  H   6.75512835136219     -5.80169689693009      2.76612246815367
  O   6.78395039693950     -5.18187469938584      3.52098997616975
  H   7.67347008644823     -5.25492983691936      3.92963171652217
  H   -0.42895978704478     -7.81596762609663      2.51734812045386
  O   0.39083358032562     -7.74867611364373      3.03268766206899
  H   1.11413530175856     -8.04490495705930      2.43455780589140
  H   3.30144756768062     -8.88957868065524      1.99071880861721
  O   2.60411456642617     -8.40972947137984      1.51144353637133
  H   2.99169899337541     -7.52108369133005      1.48613390702880
  O   4.89345347941071     -8.76985269092546      3.27784701947871
  H   5.59548717424882     -8.30266872992365      2.80702571578268
  H   4.58794859940021     -8.13500909567267      3.93565260348457
