27
Coordinates from ORCA-job grain_mol_opt.QMRegion
  H   6.43864471400432     -4.08080897188995     -0.53430266702196
  O   7.22011504959475     -4.47293546821205     -0.10452031948750
  H   7.66572466957395     -4.90880167122370     -0.86366641984532
  H   7.67043386115337     -0.15817714476825      3.16624119370507
  O   6.81323268428874      0.25713771088220      3.26941748003090
  H   6.21718315340010     -0.47055404444956      3.59348503237721
  H   7.43628610282248     -2.52963470189064      4.15256887455348
  O   7.30202790474523     -2.52733848656561      3.18953636215475
  H   7.01987589469373     -3.45195992861283      3.02162405033119
  H   6.76450349846569     -5.90405694190476      2.67286613432376
  O   6.83861077798490     -5.20909306478314      3.35684433914271
  H   7.73728832048872     -5.24951269597550      3.75375464805752
  H   9.32621760028004      0.27608813170508     -1.10714020960083
  O   8.63825330583905      0.52651032040320     -0.48339212219032
  H   8.38405145929058     -0.31565352332135     -0.07401370207272
  H   8.04947930606392     -2.99778622858942      0.40301084272256
  O   8.47132906397439     -2.19016309186741      0.77399529628960
  H   8.05372249821373     -2.13279984218040      1.66270287208907
  H   9.70257067412433     -4.22514673118390      3.86174650875625
  O   9.22955170637582     -4.73230037779539      4.55318145304078
  H   8.91159772767763     -4.07130315476469      5.18150556097756
  H   9.67544892217299     -2.19188400669632     -1.13983141985277
  O   9.91160746927836     -1.84070325134896     -2.00620163864948
  H   9.04401788041350     -1.60008603128479     -2.40701076372487
  O   10.52260716822619     -3.44943383980766      2.34545514356833
  H   9.88677196081489     -2.99677345484609      1.75541233298355
  H   10.93902136592203     -4.11596990975207      1.79145967067294
