21

H     3.429463    -6.095600     3.113813
O     3.781620    -5.889445     2.209127
H     3.029277    -5.542698     1.680587
H     6.641375    -5.817725     0.678545
O     6.276102    -6.607790     1.151238
H     5.366472    -6.335765     1.379875
H     5.894997    -7.810988    -0.015064
O     5.660669    -8.577275    -0.597408
H     4.799179    -8.330584    -0.996663
H     2.410314    -8.117125    -0.887064
O     3.035075    -8.089605    -1.633906
H     2.723174    -8.761761    -2.264214
H     6.892419    -8.479926    -1.819327
O     7.477736    -8.164694    -2.547066
H     7.651945    -8.907442    -3.126000
H     3.278324    -9.093153     1.445556
O     2.709926    -8.316485     1.266042
H     3.234458    -7.560325     1.583801
N     4.653878    -10.285216     1.329671
H     5.261657    -10.297335     2.074598
H     5.123191    -9.779392     0.626495
