603

H     0.206362     3.014792    -0.683689
O     0.727809     2.346386    -1.178456
H     1.667128     2.473937    -0.906212
H    -0.072339    -1.334300     3.133179
O     0.321902    -0.634767     2.589920
H    -0.153654     0.179727     2.824914
H    -2.393033     2.397228    -0.539738
O    -2.181655     1.922761     0.281918
H    -2.201307     0.975903     0.053134
H    -4.656939     0.527536     2.173844
O    -4.973532    -0.406083     2.185423
H    -4.472990    -0.880989     1.513932
H     0.068359    -0.328611     0.936325
O    -0.128182    -0.091115     0.009668
H     0.208913     0.806743    -0.109057
H    -0.148829    -3.606625     3.754649
O    -0.428257    -2.778533     4.176980
H     0.218112    -2.607145     4.878503
H    -4.879081     2.513958     1.328990
O    -4.239253     2.101211     1.941442
H    -3.397307     2.084761     1.427433
H    -3.243344     3.891223    -2.209901
O    -2.506376     3.292280    -1.981622
H    -2.149231     3.007216    -2.842796
H    -0.130170    -3.824247     0.473298
O     0.215733    -3.013804     0.899156
H    -0.569354    -2.522185     1.210269
H    -2.373523    -1.561886     2.451920
O    -2.183646    -2.026124     1.609914
H    -2.445355    -1.438128     0.882002
H     2.073018    -1.459710    -1.143709
O     2.304653    -1.717954    -0.227284
H     1.514171    -2.143602     0.155216
H    -1.384540     1.801018     1.904667
O    -1.473618     1.400047     2.779536
H    -1.459107     2.110393     3.446777
H     0.208245    -2.714322    -1.596223
O    -0.549064    -2.104603    -1.643922
H    -0.367380    -1.378153    -1.010774
H    -3.439740    -2.940567    -0.413825
O    -2.718420    -3.429718    -0.831430
H    -2.012863    -2.795478    -1.053757
H     2.779021     0.096621     2.916232
O     2.878692    -0.090955     3.877053
H     2.971559     0.800438     4.285457
H    -3.519209     6.368176    -0.532756
O    -3.280331     7.032699    -1.230843
H    -3.137295     7.876167    -0.757963
H     3.906718     0.556750     1.168516
O     2.956497     0.373851     1.286258
H     2.717498    -0.374051     0.702182
H    -5.779418     0.836766    -1.611029
O    -4.868373     1.162062    -1.483212
H    -4.978283     1.989231    -0.969384
H    -1.199968     5.372873     2.214373
O    -1.825473     4.626374     2.096097
H    -1.903350     4.205720     2.957598
H     3.500377     2.738651     0.415768
O     3.250596     2.698801    -0.523018
H     3.582194     1.857459    -0.877171
H     1.485460    -4.701634    -2.292316
O     1.552780    -3.934353    -1.704887
H     2.348214    -3.471474    -2.053366
H    -0.923689    -0.092618    -2.563781
O    -0.286426     0.558210    -2.885059
H    -0.025794     1.138768    -2.146828
H     1.694526    -4.675648    -0.258359
O     1.794752    -5.341909     0.465562
H     1.282377    -6.118105     0.178760
H    -1.233533    -3.276507    -2.903891
O    -1.057575    -3.959199    -3.564434
H    -0.935169    -4.807281    -3.097790
H    -2.768487     3.278023     4.703640
O    -1.787221     3.273228     4.668439
H    -1.494316     2.869204     5.503540
H     0.975480     5.000937     4.076709
O     0.029770     5.233930     4.130832
H    -0.442967     4.430554     4.386559
H    -1.729200    -4.657569    -0.413421
O    -0.978021    -5.211154    -0.113592
H    -1.354999    -5.866245     0.483637
H    -3.910956     5.827607    -2.589473
O    -4.262704     4.994734    -2.921259
H    -4.109685     4.963115    -3.889928
H    -2.431603    -3.707893     1.911911
O    -2.448378    -4.613953     2.284530
H    -1.509741    -4.850401     2.427724
H    -4.700269    -2.982954    -2.918546
O    -3.847437    -3.212983    -3.325424
H    -3.518844    -4.012824    -2.868760
H     0.348296     1.342758     4.604246
O     0.856633     2.102080     4.272677
H     0.905934     2.759651     4.980916
H    -4.659794    -5.179932    -1.599753
O    -5.359175    -4.825273    -1.023332
H    -5.148374    -5.185790    -0.141488
H     2.349112    -6.412202    -4.106175
O     2.010260    -6.111710    -3.245749
H     2.446645    -6.708837    -2.594732
H     0.459078    -3.386134    -4.034024
O     1.261836    -3.016289    -4.454387
H     0.942264    -2.643277    -5.302512
H     1.970720    -1.785090     2.959746
O     2.120616    -2.716176     2.738101
H     1.432216    -2.921437     2.070962
H    -3.019135    -1.812299    -3.227316
O    -2.595408    -0.926577    -3.158414
H    -3.250084    -0.279184    -3.476488
H    -3.180601     4.957659     1.085244
O    -3.962408     5.333385     0.632950
H    -4.376104     5.889535     1.341334
H     0.884432     2.225230     2.582724
O     0.983692     2.222793     1.611347
H     1.710401     1.600284     1.444120
H     0.198882     5.640809    -0.754478
O     0.721017     6.303438    -1.261700
H     0.864631     7.101477    -0.703732
H     0.357381     7.008398     2.598998
O    -0.006271     6.630650     1.781014
H     0.656899     5.960568     1.516341
H    -2.473987     0.188358     3.329079
O    -2.694879    -0.627963     3.830881
H    -1.934580    -0.668471     4.452761
H    -0.884261     0.517151     6.012694
O    -0.611808    -0.001720     5.237049
H     0.101270    -0.605948     5.521872
H     0.706171    -5.021753     1.940178
O     0.174106    -5.134103     2.749710
H     0.316346    -6.054529     3.020082
H    -2.337002    -7.935616     0.621167
O    -1.921418    -7.448404     1.358774
H    -2.651706    -7.024914     1.825735
H    -0.371313     6.853639    -2.317114
O    -1.117836     7.276189    -2.813834
H    -1.907278     7.149029    -2.249620
H    -1.105194     4.290762     0.574412
O    -0.733133     4.353778    -0.321897
H    -1.441059     4.115507    -0.954302
H    -4.399755     2.722973     3.506231
O    -4.396264     2.889911     4.471399
H    -4.480898     2.005728     4.877643
H     2.026354    -3.616435     4.215022
O     1.966799    -4.096258     5.064370
H     2.472269    -3.560984     5.698097
H     4.688121    -3.218891     0.806573
O     4.525141    -3.139294    -0.158469
H     3.666821    -2.660229    -0.239771
H    -2.724192    -0.757913    -1.366925
O    -3.049101    -0.492068    -0.490098
H    -3.849496     0.035562    -0.693453
H    -1.621656    -0.761293    -4.647414
O    -1.115213    -0.543137    -5.450876
H    -0.404240     0.051398    -5.164651
H     1.789849    -1.724522    -3.401156
O     1.883949    -0.981754    -2.773044
H     1.108493    -0.401338    -2.902242
H     3.660658    -3.160174     2.522053
O     4.619254    -3.390688     2.445162
H     4.681454    -4.348009     2.575475
H     3.410211    -6.164919     3.077281
O     3.755763    -5.982646     2.168302
H     3.028474    -5.604073     1.636605
H    -3.344820     1.611539    -4.183345
O    -4.189673     1.140796    -3.992960
H    -4.406208     1.283676    -3.035750
H    -5.075544     4.135366     0.071454
O    -5.515103     3.270030    -0.033494
H    -6.445684     3.391046    -0.314456
H     6.733852    -1.203052    -1.392537
O     5.963182    -1.055181    -0.837962
H     5.543591    -1.923012    -0.644130
H     4.589460    -3.186281    -2.503460
O     3.719356    -3.014475    -2.914520
H     3.720829    -3.629648    -3.673957
H     4.439481    -2.337858     5.593842
O     4.094991    -2.807431     6.384006
H     4.432648    -3.711113     6.300604
H    -0.737404     6.303353     5.082190
O    -1.332652     6.877879     5.623103
H    -1.345791     7.756520     5.184594
H     4.698664    -0.156539    -1.488850
O     3.930577     0.386835    -1.747198
H     3.237712    -0.211519    -2.080466
H    -0.739760     4.519689    -4.036429
O    -1.522196     5.064165    -4.241317
H    -1.369118     5.929395    -3.816449
H     0.662238     3.192997    -2.663527
O     0.669240     3.572775    -3.570585
H     0.714528     2.811463    -4.159037
H    -5.389977    -5.210093     1.767488
O    -4.692576    -5.805167     1.414067
H    -3.853652    -5.385651     1.680776
H     7.875384    -1.707533    -4.065068
O     7.618559    -1.396810    -3.163983
H     7.133581    -0.551304    -3.317735
H     3.688676    -5.075085    -5.328039
O     4.453327    -4.708908    -4.844020
H     4.834385    -5.426047    -4.303907
H    -3.777095    -0.012266     4.923872
O    -4.375368     0.450690     5.559133
H    -5.036734    -0.206802     5.849850
H     3.463405    -5.948523    -0.576149
O     4.347002    -5.708439    -0.867975
H     4.420852    -4.745071    -0.731682
H     4.996663    -0.348171    -4.183145
O     4.459738    -1.057761    -4.574063
H     4.133450    -1.642545    -3.857955
H    -1.173128     1.568205    -3.946103
O    -1.823385     2.191274    -4.327680
H    -1.467372     2.525153    -5.173884
H     4.878005    -6.338589    -2.358335
O     5.203654    -6.665907    -3.225552
H     6.023638    -7.146361    -3.044467
H     8.731042    -5.113089    -2.961448
O     8.039996    -5.531634    -2.403322
H     8.073626    -6.488714    -2.509474
H     2.346738     4.696516     0.448778
O     1.769084     4.676179     1.221139
H     1.409895     3.756509     1.295515
H    -4.412551    -2.659750     4.213588
O    -5.306113    -2.319000     4.013014
H    -5.169327    -1.536219     3.439552
H    -5.847933    -3.210137     1.298543
O    -6.309589    -3.768917     1.966186
H    -6.120846    -3.335945     2.817783
H     1.701481     3.424944     6.856636
O     1.078316     3.942249     6.324859
H     0.296614     4.095553     6.898319
H     5.004166    -2.206277     3.586642
O     5.025454    -1.492131     4.254145
H     4.214724    -0.932698     4.100274
H     2.394235    -5.611964     4.801460
O     2.766623    -6.498046     4.533078
H     2.017039    -7.076941     4.372114
H     2.247288    -4.510760    -6.826520
O     2.083080    -5.001958    -6.011566
H     1.814697    -4.314864    -5.353760
H     6.437516    -4.128419    -0.543727
O     7.188229    -4.535998    -0.080201
H     7.695089    -4.956766    -0.802881
H    -1.707370     4.448198     7.703144
O    -0.807550     4.543577     8.087084
H    -0.625463     5.502506     8.114912
H    -5.117092     5.700399    -5.586134
O    -4.510140     4.936423    -5.609227
H    -3.753798     5.151474    -6.176166
H     3.268638    -2.521931    -8.466119
O     3.181019    -3.055520    -7.665395
H     4.058691    -3.035806    -7.238647
H    -0.649731     8.816843    -2.263824
O    -0.524973     9.643360    -1.742328
H     0.237947     9.466231    -1.167331
H     2.072940    -0.951276     5.191024
O     1.501845    -1.481082     5.776694
H     1.594602    -1.137566     6.674875
H     5.196804    -2.032843    -5.722270
O     5.541479    -2.798105    -6.246389
H     5.266942    -3.589299    -5.731114
H     5.697662    -5.257827     4.646534
O     5.173724    -5.173911     5.472449
H     4.453574    -5.807056     5.387308
H    -3.962286     1.109996     7.001006
O    -3.768086     1.582614     7.845991
H    -4.643336     1.968911     8.109299
H    -1.838198     9.601234    -0.727116
O    -2.698044     9.474266    -0.251741
H    -3.309066     10.104665    -0.636772
H    -5.944823     4.688717    -2.930706
O    -6.854141     4.571897    -3.273825
H    -6.765698     3.871657    -3.953408
H    -0.028686    -7.151614    -1.201809
O     0.349309    -7.607530    -0.396991
H    -0.345922    -7.494895     0.265971
H    -7.634000     3.789509    -1.966253
O    -7.894325     3.200396    -1.227502
H    -7.753761     2.292634    -1.570679
H     3.983185    -0.939898     6.963294
O     3.992480     0.024139     6.956101
H     4.804887     0.315008     6.525290
H     2.265774     5.778343    -1.178978
O     3.200964     5.483564    -1.066761
H     3.375833     4.946438    -1.862400
H     6.548456    -5.957396     0.627826
O     6.178362    -6.693999     1.161265
H     5.272374    -6.419073     1.381177
H    -3.850305     4.690807     7.786231
O    -3.285072     4.229110     7.125127
H    -3.480389     3.285780     7.232646
H     5.759072    -7.963979     0.079666
O     5.471319    -8.654181    -0.553800
H     4.666478    -8.312659    -0.985397
H    -0.543713     1.999298     7.685720
O    -1.177664     1.936286     6.951030
H    -2.046116     1.796206     7.348348
H    -6.382413    -0.134415     1.056197
O    -6.701317    -0.216386     0.142935
H    -7.620829    -0.484880     0.159004
H    -5.375684    -3.074358    -0.606246
O    -5.120510    -2.374268     0.020983
H    -5.690400    -1.600289    -0.163118
H     4.326674     5.552090     0.317265
O     4.661579     5.648643     1.222569
H     3.968813     6.159340     1.677116
H    -9.048235    -1.743424    -2.262062
O    -8.499220    -1.545151    -1.475880
H    -8.626818    -2.284017    -0.840744
H    -5.526521     3.478101    -5.524217
O    -6.044111     2.766928    -5.110688
H    -5.377822     2.179027    -4.700164
H     3.172642    -0.893066    -5.678449
O     2.315422    -1.010799    -6.142089
H     2.399341    -1.857846    -6.619556
H     8.105487    -1.360947    -6.059737
O     8.112694    -2.225956    -5.605156
H     7.256127    -2.624513    -5.856780
H     7.614247     0.981447    -6.333016
O     7.423610     0.134207    -6.747618
H     6.442170     0.085903    -6.783525
H    -7.864238    -3.703934     0.913232
O    -8.542897    -3.592610     0.230040
H    -8.446920    -4.350075    -0.374918
H    -2.393251     8.717754     1.309194
O    -2.241893     8.126600     2.060113
H    -1.472803     7.573349     1.834211
H    -4.429564     6.412380     3.508550
O    -4.600387     6.840994     2.653506
H    -3.836658     7.426705     2.514651
H     3.401451     3.434754    -3.586476
O     3.249568     4.403805    -3.489200
H     2.284699     4.470283    -3.595788
H    -6.122081    -1.604851    -3.453697
O    -6.203708    -2.185520    -2.670646
H    -6.987748    -1.879945    -2.161105
H     6.477127     1.007338     4.718633
O     6.084093     1.543228     5.424219
H     6.272218     2.463063     5.136483
H     1.356587     1.720437    -5.834189
O     1.163097     1.122488    -5.081172
H     1.524173     0.259655    -5.355134
H    -2.469616     2.914926     10.482085
O    -2.258915     2.008066     10.205033
H    -2.858487     1.811759     9.473294
H     7.632501    -0.536516     3.055665
O     6.882911     0.038761     3.227516
H     6.191028    -0.561530     3.606603
H    -5.655007    -8.076107    -0.735389
O    -4.919678    -8.145001    -0.090421
H    -4.932276    -7.329643     0.434079
H    -5.184038    -0.114633    -4.723609
O    -5.802391    -0.824942    -4.964054
H    -6.640333    -0.381897    -5.159951
H     1.879664    -0.195927    -7.533728
O     1.677882     0.279344    -8.375532
H     2.252453    -0.124869    -9.031125
H     4.858032    -1.389185    -9.331002
O     3.932837    -1.157694    -9.610705
H     3.910107    -1.274659    -10.559824
H     7.567139    -2.613722     4.166153
O     7.710938    -2.646710     3.206103
H     7.217803    -3.436858     2.932577
H     6.719083    -5.931262     2.640028
O     6.778257    -5.260398     3.345839
H     7.655643    -5.344348     3.761694
H    -1.803186     8.920877     3.512971
O    -1.553652     9.221949     4.412030
H    -2.401567     9.354716     4.869060
H    -7.395096     1.576480    -5.250525
O    -7.970125     0.832335    -5.006144
H    -8.871500     1.232416    -4.928222
H     6.913970    -1.085317    -8.432511
O     6.330052    -1.804297    -8.697376
H     6.103337    -2.257160    -7.866836
H    -1.677611     6.247519    -7.015738
O    -2.075940     5.421867    -6.743991
H    -1.826505     5.287945    -5.781165
H     0.018830     3.263988     9.018876
O     0.214650     2.342864     9.270124
H    -0.583229     2.078597     9.777366
H     6.748932    -2.798930    -2.738204
O     6.218512    -3.543438    -2.397152
H     6.684520    -4.354024    -2.649600
H    -4.089274    -3.068830    -4.962104
O    -4.244490    -2.952481    -5.926210
H    -4.791852    -2.159349    -5.979259
H     1.995464     2.136644     8.454595
O     2.658374     2.249550     7.763667
H     3.079156     1.379099     7.645545
H    -6.916617    -5.205447    -1.418070
O    -7.833954    -5.470038    -1.661003
H    -7.968187    -5.066856    -2.543466
H    -3.811573     5.225623     5.704529
O    -3.778521     5.995468     5.115643
H    -2.844213     6.288796     5.209596
H    -7.887148     0.086825    -1.970223
O    -7.396731     0.811281    -2.381581
H    -7.626417     0.803829    -3.334630
H     5.839500     0.103107     0.388646
O     5.617951     0.821759     1.012929
H     6.129984     0.624313     1.824043
H    -6.199399     3.279012     7.400979
O    -6.070684     2.757675     8.227556
H    -6.672718     1.997898     8.137949
H     2.646790    -8.117972    -0.716173
O     3.032637    -8.013297    -1.601905
H     2.687998    -8.747726    -2.153567
H    -2.761495    -3.951796    -6.222217
O    -2.005675    -4.517139    -5.995939
H    -1.729318    -4.234890    -5.096491
H    -5.630537     3.735400     5.314176
O    -6.277811     4.130485     5.934099
H    -6.114050     5.074518     5.922706
H    -0.999032    -7.112069    -3.201183
O    -0.511326    -6.464370    -2.649281
H     0.377929    -6.365034    -3.079557
H     4.454909     1.975768     5.114513
O     3.513043     2.214955     4.996199
H     3.130353     2.231299     5.878806
H     4.125008     4.613701     6.295674
O     4.206784     5.345155     5.679292
H     3.637276     5.108274     4.908680
H     2.775923     3.582879     3.915337
O     2.599595     4.523775     3.753024
H     2.478611     4.626093     2.787130
H     9.392906     0.183804    -1.098766
O     8.587806     0.345705    -0.603345
H     8.411973    -0.474597    -0.112868
H    -2.078097     5.272750     10.656089
O    -2.800439     4.644219     10.886454
H    -3.017925     4.819502     11.802224
H     7.970294    -3.040410     0.291983
O     8.391874    -2.194783     0.549298
H     8.328551    -2.192693     1.511697
H     5.381403     3.628402     3.514394
O     6.038554     3.889534     4.181403
H     5.628257     4.607405     4.685406
H    -4.187721     4.980831     9.792198
O    -4.821239     5.134668     9.071167
H    -5.434647     4.387328     9.067667
H    -7.019670    -3.475704    -3.501416
O    -7.642153    -4.084373    -3.950923
H    -7.122695    -4.526638    -4.654259
H     0.051922     6.078614     10.775574
O    -0.812884     6.410985     10.530430
H    -0.698035     6.844536     9.665501
H     2.585953     1.487004    -4.119830
O     3.465204     1.837540    -3.880618
H     3.785558     1.320025    -3.112062
H    -6.962968    -0.247933     7.214304
O    -7.469386     0.530865     7.497518
H    -8.093890     0.717030     6.795315
H    -2.467400    -9.697217    -0.811411
O    -2.653838    -8.776146    -1.023706
H    -3.607206    -8.620991    -0.773230
H    -10.071166     3.087640    -4.888633
O    -10.188805     2.169429    -4.610619
H    -10.403391     2.250572    -3.660412
H    -2.066116    -3.051999     4.593780
O    -2.940103    -3.493189     4.664144
H    -2.938083    -4.106668     3.904722
H    -0.172951    -8.072406     2.635610
O     0.680984    -7.813927     2.999391
H     1.360555    -8.146690     2.388516
H     6.714125    -2.421006     6.360656
O     7.159938    -3.130982     5.893959
H     6.528725    -3.864584     5.856734
H    -5.265341    -2.033964     6.930979
O    -5.941185    -1.533258     6.449252
H    -5.927661    -1.907819     5.539104
H     0.830726     3.035615    -7.121294
O     1.747691     2.703253    -7.179077
H     1.732078     1.958013    -7.807641
H    -3.933051     8.724747     6.690873
O    -3.931669     8.725316     5.733509
H    -4.059233     7.798901     5.463137
H    -2.048541     10.308023    -2.717380
O    -2.950593     10.491493    -3.016799
H    -2.879689     11.127487    -3.727971
H     9.411958    -4.107375     4.003311
O     9.127819    -4.786350     4.622984
H     8.704487    -4.314230     5.350890
H    -0.753261    -5.982227    -5.888926
O    -0.051477    -6.543195    -5.543800
H     0.786071    -6.091837    -5.769954
H     1.838944     8.253067     0.672717
O     1.534631     8.577705    -0.203395
H     2.348454     8.616495    -0.735136
H     3.493320     2.927295    -6.673492
O     4.321158     2.634895    -6.266202
H     4.076880     2.358961    -5.357835
H     3.742150     7.105622    -1.228129
O     3.948963     8.041685    -1.438866
H     4.316619     7.987983    -2.332985
H     4.384551    -0.008086    -7.932705
O     4.762511     0.135479    -7.063180
H     4.582637     1.067166    -6.817412
H     6.033150     1.908816    -0.492870
O     6.597526     2.102824    -1.255017
H     7.421883     1.621738    -1.063779
H     6.679041    -8.455155    -1.657621
O     7.310643    -8.238675    -2.396041
H     7.665212    -9.072491    -2.700308
H    -5.315896    -5.784486    -5.431469
O    -5.932549    -5.109451    -5.740852
H    -5.380909    -4.342221    -5.978892
H     0.704181     7.132259     7.607680
O    -0.196781     7.159239     7.968608
H    -0.753564     7.177731     7.152069
H    -8.907457    -2.826268    -4.111916
O    -9.425665    -2.016988    -3.940867
H    -9.140333    -1.351413    -4.570566
H    -2.425569    -6.007265    -2.168171
O    -3.294402    -5.700728    -2.443955
H    -3.486186    -6.079989    -3.327533
H    -3.002017    -5.900423    -5.437758
O    -3.598067    -6.510020    -4.961669
H    -3.113265    -7.331289    -4.804790
H    -1.395093     3.732624    -6.984086
O    -0.855599     2.975376    -6.715812
H    -1.094123     2.192167    -7.267947
H    -0.215340     0.425349    -8.229389
O    -1.110149     0.661874    -7.943214
H    -1.285587     0.135173    -7.147439
H    -10.421005     4.059000    -2.720990
O    -10.488553     3.278923    -2.154796
H    -9.658509     3.249983    -1.647312
H     4.588255     4.051367     1.711962
O     4.380050     3.129374     1.987788
H     5.095164     2.554295     1.703072
H     6.481611     1.383717    -4.239973
O     6.178950     0.758183    -3.546908
H     6.212100     1.251697    -2.702111
H     9.629199    -2.254200    -0.965738
O     9.904592    -2.036804    -1.865086
H     9.103869    -1.696549    -2.306640
H     9.960955    -3.343062    -3.139248
O     9.690476    -3.993234    -3.814450
H     9.297349    -3.483583    -4.533585
H    -7.708871    -8.579276    -1.699725
O    -6.971945    -7.982024    -1.818922
H    -7.351196    -7.070611    -1.806281
H     4.163964     6.069445    -3.823429
O     4.826098     6.769437    -3.736498
H     5.662030     6.313945    -3.602575
H     0.116515    -8.127990    -5.417976
O     0.157586    -9.104452    -5.260171
H     0.421322    -9.475520    -6.106950
H    -2.368566    -8.723829    -2.890322
O    -2.069495    -8.378922    -3.752527
H    -1.538252    -9.046461    -4.204130
H     1.228084    -10.231929    -2.508669
O     1.862046    -9.922520    -3.182328
H     1.293141    -9.608211    -3.913156
H     6.834083     3.317239    -4.589725
O     6.889845     2.640368    -5.292009
H     6.096174     2.776581    -5.831681
H    -3.559317    -3.757707     7.701157
O    -3.671603    -2.967898     7.173708
H    -3.423074    -3.204677     6.254320
H    -0.651512    -3.358232    -6.748421
O    -0.019589    -2.627833    -6.753206
H    -0.500779    -1.852560    -6.410779
H     0.656928     0.415445     8.737489
O     0.661326    -0.298035     8.095330
H    -0.262103    -0.583640     8.008836
H    -5.829988     7.372545    -4.234895
O    -6.334390     6.755920    -4.797012
H    -6.621790     6.023812    -4.207532
H    -4.270709     9.102591    -3.243776
O    -4.807140     8.306742    -3.139025
H    -4.398282     7.824592    -2.402136
H    -9.710523     5.808018    -4.628032
O    -10.244580     5.003544    -4.465877
H    -11.125306     5.206183    -4.783259
H     2.787504     6.476138     6.141323
O     1.827714     6.573399     6.241060
H     1.482632     5.660994     6.136153
H     4.816082     8.523285     0.088310
O     5.134674     8.520613     1.008844
H     5.541256     7.655651     1.136190
H     4.104852    -7.465512    -4.358258
O     3.334421    -7.747733    -4.885714
H     3.067216    -8.595779    -4.525406
H     0.395818     8.629503     4.245306
O     1.072161     7.984433     4.014313
H     1.299295     7.489180     4.827275
H     5.236647     4.176622    -3.167717
O     6.198131     4.145003    -3.116511
H     6.407461     3.561330    -2.370612
H    -2.568856    -1.580563     7.558411
O    -2.056213    -0.789113     7.779345
H    -2.679816    -0.162566     8.156807
H    -9.022873     7.945768    -4.123246
O    -8.961675     7.362979    -4.881570
H    -8.005072     7.198342    -5.019062
H     3.707166    -8.948735     1.183706
O     2.972323    -8.332876     1.269678
H     3.404981    -7.497393     1.573273
H     3.598903     8.144281     1.834235
O     2.808138     7.581058     1.946457
H     2.363227     7.815471     2.773664
N     0.055278    -10.247770    -1.011388
H     0.192492    -9.302924    -0.746929
H     0.451443    -10.768691    -0.306824
