21

H     7.839470    -1.716825    -4.106827
O     7.634314    -1.381617    -3.201343
H     7.105620    -0.550755    -3.342023
H     9.455369     0.598714    -0.663997
O     8.538405     0.578606    -0.328650
H     8.407961    -0.312431     0.028028
H     7.936477    -3.107534     0.365617
O     8.388414    -2.265390     0.598170
H     8.345662    -2.273387     1.566541
H     5.881086     1.922130    -0.611350
O     6.536699     2.113563    -1.294576
H     7.333017     1.628686    -0.989856
H     9.614825    -2.289640    -0.954310
O     9.890924    -2.098523    -1.868222
H     9.087794    -1.689728    -2.267921
H     9.915850    -3.477858    -3.192428
O     9.715723    -4.122895    -3.896810
H     9.229192    -3.617854    -4.562897
N     11.107689     0.332491    -1.429222
H     11.243909     0.793731    -2.262122
H     10.863052    -0.583701    -1.685163
