12
Coordinates from ORCA-job grain_mol_opt.QMRegion
  H   8.74016798796883     -5.08237903681636     -2.86034950182134
  O   8.05032439225358     -5.49553684830086     -2.32072466780478
  H   8.11932127944945     -6.45911253045968     -2.36592541641106
  H   6.68000190821232     -8.46570714698714     -1.51148209136858
  O   7.32544811921336     -8.17647763018729     -2.21345062661954
  H   7.61982141878713     -8.97880736028347     -2.64646420899620
  H   9.98198212117860     -3.18715759274460     -3.16545572995667
  O   9.71392985766693     -3.83697397304427     -3.84680511748051
  H   9.28765380292008     -3.31822216123567     -4.54861551819649
  O   10.50425423810754     -6.61363743240632     -4.11381299823619
  H   11.43812384306163     -6.79998914179581     -3.98745560671913
  H   10.46297495823683     -5.64740739693981     -4.19667099593242
