18

H    -2.120142    -7.997439     0.524647
O    -1.723996    -7.534609     1.293686
H    -2.452716    -7.195314     1.816867
H    -5.910338    -7.977609    -0.444218
O    -5.041171    -8.032976     0.025242
H    -5.004314    -7.262403     0.621361
H    -2.884266    -9.646836    -0.657003
O    -2.647692    -8.779315    -1.033754
H    -3.509261    -8.314122    -0.964214
H    -8.110710    -8.366554    -0.794706
O    -7.384660    -8.031048    -1.328178
H    -7.633034    -7.083226    -1.490060
H    -2.205617    -8.760024    -2.807530
O    -1.996987    -8.424915    -3.699843
H    -1.314035    -8.980543    -4.102616
N    -3.986244    -10.578868     0.586258
H    -4.542095    -11.318168     0.325636
H    -4.577651    -9.800252     0.576811
