24
Coordinates from ORCA-job grain_mol_opt.QMRegion
  H   -1.61443180363556      4.48474034049003      7.74608911839083
  O   -0.77291226322587      4.61752424485662      8.24650565855812
  H   -0.52051484123609      5.56306650424180      8.17019277861970
  H   -3.82995462284407      4.60916353913352      7.85493070791499
  O   -3.22589337125786      4.22698737445903      7.17526877911253
  H   -3.43325530186778      3.27610599568412      7.20872952384502
  H   -1.72767811964344      4.76469376050446      9.85292910092805
  O   -2.35041206178538      4.68560089909034     10.60331362630543
  H   -2.58233749995299      5.60717347903689     10.83482355883490
  H   -4.02475582199386      4.61373425497871      9.84712031712780
  O   -4.76348109093194      4.92632305086628      9.27792444120091
  H   -5.38963899932875      4.18561067058066      9.21322136209414
  H   -2.02296009515749      9.72272566097464      8.80661695967122
  O   -2.21209941541568      8.79380067350393      8.64314747603139
  H   -1.33813704075197      8.38474616038311      8.46386276055073
  H   -3.28415943228726      8.70032651009329      6.82953540835315
  O   -3.70237980171852      8.77141998405037      5.95869629363094
  H   -3.87608252717504      7.85248380419586      5.69040490902126
  H   0.79967005011353      7.22176545271975      7.57867224299563
  O   -0.12719360560303      7.20264077032395      7.87846188132312
  H   -0.60793388996363      7.11771751730963      7.00303088896406
  O   -3.45402135105862      7.22784922248505     10.70980356358175
  H   -3.03641046632538      7.81888903738067     10.05645592964930
  H   -4.24374723393730      6.89735521908196     10.26083907607406
