24
Coordinates from ORCA-job grain_mol_opt.QMRegion
  H   -3.90377013583856      1.09864681923670      6.89933148135522
  O   -3.77445228911553      1.56663927687075      7.76787272170831
  H   -4.69688011544869      1.85382649366907      7.97264036412897
  H   -3.84502238949808      4.82516466962464      7.83414666470262
  O   -3.30821825627339      4.36064420214390      7.14692367781233
  H   -3.56390662917454      3.42702001726992      7.18166576233072
  H   -2.34766925297899      3.04647562258910     10.41019772697806
  O   -2.28132163934761      2.09223885449595     10.21796559802085
  H   -2.75959628171796      1.96675262357397      9.38326156366929
  H   -6.38162474920933      3.06433418193419      7.26700868474905
  O   -6.26875164421716      2.43527388551996      8.02414487335600
  H   -6.87160887856442      1.67876787686356      7.85051071419310
  H   -5.66465007534423      3.76702976294798      5.25743340541798
  O   -6.38589163665423      4.08366735403365      5.84480722570575
  H   -6.18155560950087      5.01571653342114      5.97885416327839
  H   -1.89214006684072      5.41492260016097     10.74304700685899
  O   -2.61911572535308      4.75879784478137     10.88929982410931
  H   -2.91191641191040      4.92743978524922     11.78855503824204
  H   -3.85187862610683      5.66452903600296      9.70218510673086
  O   -4.60958354055260      5.67658052792809      9.09206443323023
  H   -5.18261260556452      5.02142433554590      9.53773732297004
  O   -5.69915672311537      3.47968707032785     10.50894402961197
  H   -4.91548651448299      2.96001018785211     10.72442428627750
  H   -6.07274523394805      3.03179781670553      9.72366284604254
