603

H     0.284732     2.954497    -0.581230
O     0.823278     2.372323    -1.158770
H     1.763278     2.475773    -0.868016
H    -0.066213    -1.294921     3.150123
O     0.331139    -0.593934     2.610724
H    -0.147498     0.219577     2.841408
H    -2.366335     2.436421    -0.539446
O    -2.161033     1.965686     0.285973
H    -2.176595     1.017936     0.059494
H    -4.644533     0.574927     2.170443
O    -4.964539    -0.357336     2.181347
H    -4.459935    -0.835310     1.514916
H     0.083904    -0.292924     0.954251
O    -0.117014    -0.058090     0.028384
H     0.230002     0.835820    -0.100219
H    -0.153905    -3.565323     3.772327
O    -0.431412    -2.735445     4.194285
H     0.213697    -2.568554     4.897834
H    -4.860584     2.559701     1.321901
O    -4.222902     2.149073     1.937734
H    -3.379720     2.128443     1.425377
H    -3.203394     3.929066    -2.214591
O    -2.466950     3.332545    -1.980496
H    -2.100098     3.052571    -2.840656
H    -0.115504    -3.787531     0.497614
O     0.225716    -2.972598     0.919299
H    -0.561193    -2.483310     1.227579
H    -2.367735    -1.517889     2.460734
O    -2.177835    -1.983340     1.620057
H    -2.430873    -1.394074     0.890201
H     2.094729    -1.429174    -1.116448
O     2.322326    -1.684763    -0.198363
H     1.530391    -2.110809     0.181369
H    -1.369291     1.842036     1.910943
O    -1.463675     1.444609     2.786882
H    -1.448654     2.156084     3.452434
H     0.227473    -2.683495    -1.572792
O    -0.527566    -2.071338    -1.627270
H    -0.347573    -1.344691    -0.993124
H    -3.422153    -2.896296    -0.404972
O    -2.705446    -3.390766    -0.823688
H    -1.992557    -2.762180    -1.040074
H     2.786502     0.131957     2.942500
O     2.882621    -0.051286     3.904602
H     2.974877     0.840655     4.310212
H    -3.502925     6.402354    -0.531187
O    -3.274467     7.074228    -1.227209
H    -3.121046     7.913372    -0.750579
H     3.921108     0.586146     1.198511
O     2.969588     0.408310     1.312826
H     2.731114    -0.341520     0.730152
H    -5.751942     0.880349    -1.619645
O    -4.841139     1.204717    -1.489258
H    -4.951344     2.032042    -0.976315
H    -1.178513     5.414604     2.217978
O    -1.803096     4.669413     2.093445
H    -1.888990     4.248327     2.954206
H     3.526774     2.760267     0.445474
O     3.276409     2.728487    -0.492919
H     3.608749     1.890660    -0.855614
H     1.505286    -4.679975    -2.253670
O     1.571127    -3.904741    -1.678031
H     2.367482    -3.444591    -2.026771
H    -0.893216    -0.059070    -2.549709
O    -0.254059     0.589626    -2.870945
H     0.005207     1.171774    -2.133714
H     1.707811    -4.673080    -0.181524
O     1.810307    -5.311786     0.560566
H     1.345279    -6.120870     0.261555
H    -1.205567    -3.238406    -2.888643
O    -1.033865    -3.922342    -3.549435
H    -0.910844    -4.769822    -3.080870
H    -2.762003     3.326893     4.702480
O    -1.780530     3.323752     4.671594
H    -1.491315     2.917920     5.507188
H     0.987102     5.041698     4.088845
O     0.041734     5.278189     4.134522
H    -0.434551     4.476979     4.391563
H    -1.721267    -4.627068    -0.383606
O    -0.958900    -5.171099    -0.097221
H    -1.310575    -5.857736     0.478715
H    -3.873933     5.864564    -2.602799
O    -4.222427     5.030715    -2.933893
H    -4.068450     4.996768    -3.902604
H    -2.425505    -3.667852     1.923386
O    -2.447849    -4.572321     2.298485
H    -1.509134    -4.813686     2.440582
H    -4.674504    -2.943307    -2.916210
O    -3.822147    -3.178431    -3.320927
H    -3.494190    -3.973157    -2.855588
H     0.352191     1.384648     4.619272
O     0.861375     2.144643     4.289672
H     0.909330     2.801645     4.998215
H    -4.644576    -5.135403    -1.592279
O    -5.347123    -4.781216    -1.019781
H    -5.137177    -5.137678    -0.135747
H     2.339693    -6.463880    -4.043921
O     2.001296    -6.136441    -3.190489
H     2.432665    -6.712419    -2.527262
H     0.489243    -3.355877    -4.009747
O     1.294900    -2.992175    -4.429772
H     0.979374    -2.616059    -5.277834
H     1.971569    -1.746947     2.984684
O     2.124832    -2.678059     2.767103
H     1.440634    -2.888581     2.097208
H    -2.990341    -1.776301    -3.220191
O    -2.566320    -0.891412    -3.149947
H    -3.216756    -0.242783    -3.473417
H    -3.156611     4.998546     1.082973
O    -3.937325     5.374816     0.629070
H    -4.352942     5.932617     1.335180
H     0.898821     2.262579     2.603184
O     1.003903     2.265611     1.632599
H     1.724793     1.636205     1.464305
H     0.146628     5.682308    -0.641407
O     0.674546     6.348598    -1.148845
H     0.839972     7.132579    -0.571730
H     0.378417     7.047308     2.603149
O     0.022144     6.675574     1.779100
H     0.678995     5.996026     1.523761
H    -2.467166     0.234649     3.335205
O    -2.693063    -0.578872     3.838998
H    -1.933854    -0.622429     4.461907
H    -0.887337     0.563354     6.025167
O    -0.612252     0.045809     5.249997
H     0.098276    -0.561199     5.536990
H     0.710340    -4.982256     1.974270
O     0.165948    -5.091749     2.777386
H     0.307119    -6.013344     3.047936
H    -2.122840    -8.065000     0.429024
O    -1.801362    -7.579902     1.216381
H    -2.588075    -7.266423     1.670165
H    -0.484074     6.885105    -2.146179
O    -1.178474     7.322521    -2.708982
H    -1.992594     7.205887    -2.162007
H    -1.148727     4.274223     0.616860
O    -0.743718     4.321518    -0.270874
H    -1.452813     4.082810    -0.908643
H    -4.389100     2.771671     3.500373
O    -4.389265     2.941114     4.465264
H    -4.476584     2.057631     4.872831
H     2.022697    -3.578804     4.244217
O     1.955260    -4.052029     5.096704
H     2.462518    -3.518043     5.729371
H     4.697023    -3.193170     0.846777
O     4.539238    -3.115777    -0.119809
H     3.682288    -2.635072    -0.205067
H    -2.699081    -0.719253    -1.358867
O    -3.028786    -0.450222    -0.484770
H    -3.826688     0.078397    -0.693912
H    -1.583112    -0.728765    -4.635720
O    -1.074509    -0.516234    -5.438878
H    -0.364998     0.081922    -5.153834
H     1.820649    -1.696221    -3.374406
O     1.913008    -0.952459    -2.747965
H     1.138862    -0.370933    -2.881669
H     3.667816    -3.120732     2.555819
O     4.626472    -3.352384     2.485860
H     4.677683    -4.313071     2.610034
H     3.420248    -6.120095     3.122416
O     3.779047    -5.918790     2.223668
H     3.044113    -5.570064     1.679086
H    -3.303077     1.645411    -4.184929
O    -4.152497     1.179450    -3.997828
H    -4.370568     1.323399    -3.041597
H    -5.051296     4.179186     0.060286
O    -5.491769     3.314762    -0.043927
H    -6.420664     3.436273    -0.330141
H     6.754712    -1.182669    -1.346856
O     5.983669    -1.032362    -0.793522
H     5.560382    -1.898976    -0.601080
H     4.612128    -3.161877    -2.462855
O     3.745576    -2.987797    -2.880162
H     3.749063    -3.604103    -3.638214
H     4.433909    -2.300035     5.630368
O     4.087856    -2.765485     6.422252
H     4.419725    -3.671598     6.339577
H    -0.726491     6.348849     5.084365
O    -1.322591     6.925691     5.621887
H    -1.332401     7.803576     5.182356
H     4.722313    -0.129721    -1.453121
O     3.957885     0.416304    -1.715442
H     3.264827    -0.180299    -2.051117
H    -1.021547     4.555430    -3.950849
O    -1.695694     5.197625    -4.238803
H    -1.469832     6.021005    -3.753992
H     0.746844     3.340269    -2.610769
O     0.612175     3.736346    -3.506557
H     0.598735     2.960255    -4.077108
H    -5.383090    -5.162416     1.771239
O    -4.687326    -5.758944     1.417296
H    -3.846218    -5.345829     1.690490
H     7.907696    -1.689883    -4.015058
O     7.648789    -1.377549    -3.115440
H     7.164738    -0.531542    -3.272058
H     3.720382    -5.056842    -5.288632
O     4.483282    -4.687496    -4.805025
H     4.863430    -5.400822    -4.259442
H    -3.776262     0.039429     4.925295
O    -4.377090     0.504340     5.557514
H    -5.040222    -0.152320     5.846026
H     3.468278    -5.934948    -0.520511
O     4.343165    -5.690437    -0.834403
H     4.421696    -4.728350    -0.689901
H     5.031049    -0.325035    -4.147416
O     4.496827    -1.036353    -4.539409
H     4.165552    -1.618058    -3.822964
H    -1.158646     1.492589    -3.906305
O    -1.772301     2.163316    -4.276163
H    -1.496372     2.395096    -5.183282
H     4.892518    -6.316239    -2.312070
O     5.226399    -6.641367    -3.177276
H     6.042650    -7.124668    -2.989287
H     8.753240    -5.097117    -2.903606
O     8.059640    -5.513862    -2.347374
H     8.091242    -6.471034    -2.451479
H     2.386259     4.710599     0.475525
O     1.788399     4.711424     1.231468
H     1.428958     3.790811     1.316547
H    -4.414009    -2.610471     4.215713
O    -5.306372    -2.267336     4.012114
H    -5.165426    -1.486190     3.437576
H    -5.838650    -3.162346     1.296825
O    -6.305018    -3.718883     1.963268
H    -6.117292    -3.285415     2.814919
H     1.699917     3.470098     6.872757
O     1.080379     3.989772     6.338741
H     0.295870     4.142565     6.908429
H     5.005152    -2.174293     3.626547
O     5.026186    -1.457013     4.291932
H     4.216648    -0.898010     4.133719
H     2.380903    -5.575205     4.836023
O     2.759069    -6.459790     4.576041
H     2.012810    -7.038607     4.398165
H     2.281861    -4.495079    -6.791108
O     2.109102    -4.984145    -5.976614
H     1.844328    -4.292681    -5.321155
H     6.449256    -4.105284    -0.492973
O     7.199662    -4.511912    -0.028153
H     7.707648    -4.934774    -0.748381
H    -1.711210     4.499757     7.704651
O    -0.812816     4.595075     8.092034
H    -0.629627     5.553558     8.119162
H    -5.059999     5.738615    -5.603809
O    -4.452686     4.975204    -5.621013
H    -3.684751     5.196285    -6.170291
H     3.316449    -2.506997    -8.431487
O     3.226371    -3.042869    -7.632542
H     4.101421    -3.019541    -7.200514
H    -0.640048     8.864190    -2.134995
O    -0.485652     9.739808    -1.709928
H     0.182289     9.573612    -1.024050
H     2.070452    -0.910458     5.215833
O     1.494342    -1.434920     5.801296
H     1.587613    -1.091597     6.699269
H     5.235605    -2.013293    -5.681989
O     5.580874    -2.779952    -6.204376
H     5.302917    -3.569766    -5.689023
H     5.687170    -5.223292     4.693008
O     5.163221    -5.138087     5.518641
H     4.439932    -5.767643     5.430030
H    -3.968389     1.164715     6.999074
O    -3.776915     1.639240     7.843917
H    -4.652684     2.026472     8.103327
H    -1.798309     9.644612    -0.729389
O    -2.660937     9.514910    -0.261105
H    -3.270473     10.144495    -0.649904
H    -5.905382     4.729186    -2.946550
O    -6.813560     4.614078    -3.293150
H    -6.723070     3.912651    -3.971519
H     0.096530    -7.045645    -1.154130
O     0.557276    -7.484391    -0.405830
H    -0.124366    -7.677873     0.240827
H    -7.599761     3.835106    -1.987762
O    -7.864882     3.248291    -1.248863
H    -7.723980     2.339427    -1.589248
H     3.972306    -0.898572     6.996114
O     3.984398     0.065620     6.988873
H     4.798736     0.353064     6.559497
H     2.269063     5.836167    -1.071377
O     3.226427     5.625127    -1.002517
H     3.412507     4.999633    -1.743865
H     6.550902    -5.934181     0.679837
O     6.178888    -6.670086     1.211887
H     5.274404    -6.390719     1.436161
H    -3.854038     4.746237     7.779174
O    -3.286911     4.283288     7.120678
H    -3.483200     3.340117     7.228965
H     5.757878    -7.946715     0.140720
O     5.469538    -8.632275    -0.498244
H     4.642500    -8.303528    -0.894382
H    -0.551032     2.048635     7.695739
O    -1.182557     1.988947     6.958836
H    -2.052364     1.847946     7.352740
H    -6.365808    -0.086008     1.046483
O    -6.683922    -0.166048     0.132598
H    -7.603190    -0.435217     0.147296
H    -5.359063    -3.028552    -0.606627
O    -5.107426    -2.328275     0.021576
H    -5.673679    -1.553093    -0.167481
H     4.359741     5.573901     0.341946
O     4.688089     5.684252     1.247723
H     3.989529     6.190953     1.696987
H    -9.023015    -1.695491    -2.278956
O    -8.477213    -1.496561    -1.490834
H    -8.607819    -2.234272    -0.855063
H    -5.476844     3.514536    -5.538042
O    -5.997905     2.807107    -5.123156
H    -5.333972     2.217794    -4.709695
H     3.214174    -0.873001    -5.648114
O     2.359626    -0.992070    -6.116433
H     2.443804    -1.840409    -6.590733
H     8.145588    -1.347146    -6.009433
O     8.150787    -2.212257    -5.554797
H     7.293722    -2.608961    -5.807798
H     7.659429     0.995200    -6.287167
O     7.469891     0.148148    -6.702922
H     6.488262     0.101509    -6.742205
H    -7.853985    -3.651962     0.904162
O    -8.530653    -3.542080     0.218524
H    -8.432799    -4.300576    -0.384453
H    -2.364954     8.760168     1.301682
O    -2.216235     8.169663     2.053565
H    -1.447519     7.614767     1.830839
H    -4.413511     6.461151     3.497900
O    -4.579884     6.889161     2.641550
H    -3.814724     7.473289     2.505153
H     3.389604     3.473063    -3.445514
O     3.670999     4.393896    -3.241716
H     3.254032     5.002107    -3.883117
H    -6.090936    -1.563258    -3.459891
O    -6.178487    -2.143454    -2.676995
H    -6.962523    -1.834101    -2.170056
H     6.478595     1.039155     4.758908
O     6.084436     1.578961     5.461145
H     6.277243     2.497033     5.171896
H     1.340703     1.625223    -5.878226
O     1.170104     1.035106    -5.108422
H     1.562929     0.184001    -5.403242
H    -2.487364     2.972753     10.482942
O    -2.276889     2.065067     10.208708
H    -2.873314     1.868100     9.474539
H     7.637838    -0.509329     3.103205
O     6.889539     0.068424     3.272701
H     6.194229    -0.530993     3.648086
H    -5.662153    -8.017581    -0.727262
O    -4.929474    -8.089798    -0.078797
H    -4.931719    -7.273047     0.444025
H    -5.144535    -0.076995    -4.728095
O    -5.763793    -0.786487    -4.969654
H    -6.599645    -0.341821    -5.170308
H     1.926962    -0.176132    -7.510379
O     1.728540     0.294712    -8.355253
H     2.307949    -0.110549    -9.005802
H     4.912133    -1.376840    -9.292576
O     3.988281    -1.145929    -9.577143
H     3.970417    -1.261561    -10.526461
H     7.564681    -2.584125     4.216654
O     7.714117    -2.618705     3.257545
H     7.219147    -3.407491     2.982604
H     6.715196    -5.902495     2.693397
O     6.777428    -5.228995     3.396242
H     7.652088    -5.317648     3.815728
H    -1.782669     8.965958     3.507195
O    -1.534486     9.269134     4.405752
H    -2.383287     9.402913     4.861039
H    -7.350805     1.617645    -5.266648
O    -7.928689     0.875054    -5.024184
H    -8.829471     1.276900    -4.950282
H     6.963739    -1.073075    -8.387009
O     6.381955    -1.793188    -8.653662
H     6.149513    -2.242728    -7.822774
H    -1.826441     6.231403    -7.163612
O    -2.088803     5.398426    -6.768386
H    -1.813359     5.419161    -5.794579
H     0.007635     3.315448     9.029348
O     0.201496     2.394900     9.283828
H    -0.599042     2.132126     9.787527
H     6.774320    -2.778283    -2.691384
O     6.241478    -3.521703    -2.352024
H     6.707522    -4.333442    -2.599845
H    -4.054297    -3.034538    -4.957909
O    -4.206670    -2.920787    -5.922862
H    -4.749632    -2.124868    -5.979599
H     1.984894     2.182986     8.474472
O     2.650556     2.294746     7.786022
H     3.070712     1.423441     7.670536
H    -6.900299    -5.159768    -1.420253
O    -7.816155    -5.425981    -1.668583
H    -7.945967    -5.021725    -2.551376
H    -3.806073     5.277572     5.696380
O    -3.768768     6.046976     5.106949
H    -2.834205     6.337862     5.204554
H    -7.859642     0.133580    -1.985659
O    -7.367207     0.856927    -2.396461
H    -7.591989     0.847652    -3.350561
H     5.855765     0.130249     0.428496
O     5.634185     0.849773     1.052124
H     6.143313     0.650717     1.864672
H    -6.204095     3.337560     7.386711
O    -6.079910     2.818036     8.215035
H    -6.681989     2.058404     8.124020
H     2.274309    -8.061574    -0.848333
O     2.953908    -8.050634    -1.542064
H     2.728162    -8.762648    -2.157231
H    -2.721199    -3.925588    -6.208979
O    -1.971079    -4.495755    -5.975435
H    -1.695116    -4.205092    -5.077858
H    -5.625679     3.789216     5.301749
O    -6.274902     4.187118     5.917975
H    -6.108814     5.130713     5.906050
H    -1.012665    -7.088357    -3.175388
O    -0.539458    -6.421452    -2.644356
H     0.368974    -6.353548    -3.023295
H     4.457545     2.013483     5.144218
O     3.517447     2.258333     5.022405
H     3.130644     2.271454     5.903251
H     4.128488     4.653326     6.319998
O     4.211785     5.384530     5.703453
H     3.645946     5.145789     4.930965
H     2.785807     3.621567     3.938037
O     2.611624     4.562309     3.770748
H     2.494182     4.660200     2.804447
H     9.416263     0.199164    -1.046083
O     8.612410     0.365287    -0.550058
H     8.430459    -0.455176    -0.061966
H    -2.091828     5.330532     10.654888
O    -2.816381     4.703979     10.883372
H    -3.036454     4.880271     11.798322
H     7.982360    -3.017620     0.344370
O     8.406371    -2.173234     0.602285
H     8.337330    -2.169243     1.564319
H     5.393491     3.659514     3.546910
O     6.049340     3.924887     4.213636
H     5.636410     4.642116     4.716109
H    -4.198797     5.040140     9.783141
O    -4.829411     5.194148     9.059602
H    -5.443639     4.447445     9.054489
H    -6.992824    -3.432419    -3.507303
O    -7.614158    -4.041803    -3.958003
H    -7.092517    -4.484423    -4.659540
H     0.039022     6.131803     10.781672
O    -0.823671     6.466681     10.532498
H    -0.704094     6.898092     9.667198
H     2.591774     1.437236    -4.102051
O     3.435073     1.856649    -3.837673
H     3.789774     1.338308    -3.083528
H    -6.971618    -0.188246     7.203268
O    -7.478439     0.591555     7.483359
H    -8.099529     0.777429     6.778055
H    -2.751926    -9.845342    -0.849703
O    -2.685289    -8.903679    -1.007948
H    -3.590598    -8.534562    -0.769292
H    -10.026604     3.133442    -4.917642
O    -10.147642     2.215920    -4.638841
H    -10.365251     2.298832    -3.689483
H    -2.069243    -3.006082     4.605837
O    -2.945848    -3.443289     4.672865
H    -2.939738    -4.059859     3.915429
H    -0.189723    -7.967132     2.474641
O     0.636088    -7.760368     2.925326
H     1.354989    -8.057312     2.339788
H     6.701367    -2.388282     6.407670
O     7.150237    -3.098795     5.944725
H     6.518040    -3.831557     5.902982
H    -5.276272    -1.977598     6.928932
O    -5.949761    -1.476476     6.444202
H    -5.932387    -1.852148     5.534378
H     0.797464     3.009754    -7.230683
O     1.729215     2.701342    -7.245822
H     1.729064     1.942679    -7.862552
H    -3.924687     8.779299     6.676709
O    -3.917541     8.777964     5.719370
H    -4.046972     7.851336     5.450400
H    -2.001535     10.346056    -2.728636
O    -2.903839     10.529709    -3.025315
H    -2.834582     11.158002    -3.743523
H     9.407126    -4.078958     4.063319
O     9.124455    -4.756817     4.684870
H     8.694081    -4.283982     5.408168
H    -0.719102    -5.968149    -5.849248
O    -0.018094    -6.537541    -5.515392
H     0.819265    -6.077842    -5.730233
H     1.911073     8.315853     0.760068
O     1.566535     8.662789    -0.097165
H     2.371363     8.725511    -0.647742
H     3.573729     2.973328    -6.693939
O     4.377982     2.664752    -6.255449
H     4.090582     2.363126    -5.367174
H     3.819062     7.196252    -1.290515
O     4.010065     8.158475    -1.425431
H     4.658903     8.151497    -2.143517
H     4.434011     0.011661    -7.898558
O     4.811449     0.154285    -7.028756
H     4.630342     1.086132    -6.781708
H     6.057526     1.930222    -0.455111
O     6.627242     2.122275    -1.213320
H     7.449188     1.638907    -1.018657
H     6.681221    -8.432319    -1.600586
O     7.319933    -8.222945    -2.335122
H     7.683552    -9.058195    -2.623974
H    -5.286298    -5.744804    -5.427562
O    -5.900860    -5.070669    -5.742924
H    -5.346692    -4.303653    -5.976934
H     0.706582     7.180133     7.614044
O    -0.195589     7.210480     7.971589
H    -0.749439     7.227319     7.153211
H    -8.876016    -2.780945    -4.126877
O    -9.394588    -1.971073    -3.959793
H    -9.104586    -1.306292    -4.588228
H    -2.403436    -5.958627    -2.156965
O    -3.280696    -5.670385    -2.426430
H    -3.466537    -6.042132    -3.313731
H    -2.972469    -5.863276    -5.423468
O    -3.575278    -6.472444    -4.953824
H    -3.095921    -7.294250    -4.787515
H    -1.434878     3.747218    -7.067003
O    -0.937042     2.961042    -6.759477
H    -1.151394     2.189777    -7.336708
H    -0.163948     0.447607    -8.214488
O    -1.061879     0.681224    -7.936052
H    -1.237209     0.162256    -7.135178
H    -10.383449     4.108643    -2.753379
O    -10.455046     3.330030    -2.185676
H    -9.626526     3.299798    -1.675649
H     4.614692     4.079640     1.740788
O     4.399384     3.161467     2.019554
H     5.110286     2.579618     1.737046
H     6.518765     1.404363    -4.200905
O     6.214274     0.778188    -3.508859
H     6.241242     1.273922    -2.665217
H     9.647738    -2.237109    -0.908215
O     9.927386    -2.021936    -1.806866
H     9.128989    -1.680312    -2.251910
H     9.985981    -3.329630    -3.077797
O     9.719009    -3.979998    -3.754390
H     9.328021    -3.470175    -4.474629
H    -7.701993    -8.528638    -1.696058
O    -6.961807    -7.936640    -1.821620
H    -7.336346    -7.022323    -1.811678
H     6.352431     7.308699    -4.099122
O     5.712005     6.950726    -3.479710
H     6.028003     6.046945    -3.296100
H     0.104698    -8.144356    -5.225678
O     0.125139    -9.127657    -5.095268
H     0.276692    -9.490385    -5.968075
H    -2.333354    -8.643481    -2.732660
O    -2.097053    -8.379516    -3.641469
H    -1.450947    -8.998992    -3.999398
H     2.177231    -10.799920    -3.504702
O     2.134285    -9.845290    -3.478714
H     1.351402    -9.570813    -4.006855
H     6.874402     3.333718    -4.543418
O     6.936443     2.660089    -5.250796
H     6.142700     2.794566    -5.790798
H    -3.575623    -3.703072     7.708073
O    -3.685658    -2.913903     7.179148
H    -3.433193    -3.152454     6.260934
H    -0.612599    -3.330987    -6.729740
O     0.021160    -2.602789    -6.734044
H    -0.457818    -1.825117    -6.392777
H     0.640743     0.465972     8.756842
O     0.647892    -0.247339     8.114672
H    -0.274787    -0.534029     8.024481
H    -5.782343     7.410907    -4.255160
O    -6.286098     6.794550    -4.817812
H    -6.575319     6.062786    -4.228787
H    -4.222850     9.139308    -3.258118
O    -4.763702     8.346126    -3.156554
H    -4.368927     7.864318    -2.411777
H    -9.662315     5.853339    -4.660311
O    -10.198787     5.050352    -4.498617
H    -11.077566     5.253853    -4.820764
H     2.793645     6.517545     6.157415
O     1.833412     6.617890     6.250453
H     1.487329     5.705160     6.149127
H     4.849930     8.545247     0.096239
O     5.159961     8.551258     1.018932
H     5.564830     7.687199     1.159672
H     4.149935    -7.414022    -4.341745
O     3.392660    -7.696272    -4.886474
H     3.108655    -8.536526    -4.511624
H     0.414429     8.671344     4.248033
O     1.091306     8.025792     4.019719
H     1.314372     7.530601     4.834303
H     5.296809     4.188881    -3.160279
O     6.261467     4.164956    -3.079638
H     6.448008     3.575935    -2.333639
H    -2.581191    -1.527950     7.566012
O    -2.069406    -0.736285     7.788524
H    -2.694613    -0.109106     8.162107
H    -8.973344     7.990343    -4.156163
O    -8.910425     7.406659    -4.913639
H    -7.953501     7.239217    -5.046737
H     3.519386    -8.973546     1.086880
O     2.844012    -8.340708     1.336554
H     3.320247    -7.536834     1.617895
H     3.620258     8.180416     1.850289
O     2.827837     7.619050     1.956540
H     2.379175     7.852576     2.782504
N     1.853445     6.034247    -4.529146
H     1.289209     5.327799    -4.161867
H     1.773122     6.756410    -3.897703
