603

H     0.206448     3.048379    -0.673691
O     0.731590     2.383441    -1.169038
H     1.669700     2.513441    -0.894007
H    -0.063817    -1.307800     3.135791
O     0.327470    -0.604178     2.595302
H    -0.152666     0.207064     2.831442
H    -2.391428     2.421001    -0.536764
O    -2.180379     1.947041     0.285199
H    -2.194484     1.000205     0.055687
H    -4.654080     0.539700     2.170095
O    -4.968771    -0.394549     2.178754
H    -4.462454    -0.867780     1.510331
H     0.076195    -0.299037     0.941338
O    -0.120476    -0.058835     0.015228
H     0.216151     0.839407    -0.100873
H    -0.137325    -3.581154     3.752477
O    -0.418550    -2.753600     4.176385
H     0.226329    -2.584707     4.879712
H    -4.881550     2.526554     1.327137
O    -4.241687     2.115732     1.940683
H    -3.398476     2.102393     1.428531
H    -3.243367     3.914155    -2.206734
O    -2.504526     3.317979    -1.977640
H    -2.144592     3.034869    -2.838343
H    -0.104381    -3.793693     0.476670
O     0.233436    -2.977461     0.898738
H    -0.555422    -2.494148     1.211741
H    -2.364499    -1.541827     2.450683
O    -2.173251    -2.003610     1.607965
H    -2.432410    -1.413972     0.880710
H     2.089334    -1.419879    -1.134845
O     2.321196    -1.676656    -0.218459
H     1.532463    -2.107492     0.162844
H    -1.385271     1.825996     1.909343
O    -1.476531     1.424076     2.783501
H    -1.464669     2.133378     3.451752
H     0.228651    -2.681982    -1.591349
O    -0.528354    -2.071961    -1.643774
H    -0.351352    -1.347874    -1.006643
H    -3.417446    -2.918189    -0.417665
O    -2.698197    -3.406750    -0.839156
H    -1.989688    -2.773221    -1.054470
H     2.780928     0.135163     2.927935
O     2.879962    -0.051622     3.888814
H     2.968353     0.839621     4.297749
H    -3.531918     6.388021    -0.526990
O    -3.294233     7.054496    -1.223703
H    -3.155056     7.897697    -0.749276
H     3.911079     0.600980     1.183243
O     2.960971     0.416208     1.297533
H     2.725989    -0.333875     0.714223
H    -5.769685     0.850198    -1.616490
O    -4.860157     1.178934    -1.487396
H    -4.973693     2.004816    -0.972330
H    -1.215080     5.397721     2.224311
O    -1.837970     4.649517     2.103564
H    -1.915811     4.226744     2.964059
H     3.498269     2.782560     0.432332
O     3.251926     2.743703    -0.507400
H     3.586312     1.903328    -0.861350
H     1.516370    -4.669488    -2.280366
O     1.578957    -3.895099    -1.703142
H     2.372145    -3.429943    -2.051701
H    -0.907243    -0.061841    -2.559251
O    -0.273657     0.593164    -2.879317
H    -0.015961     1.173072    -2.139604
H     1.722395    -4.667304    -0.208474
O     1.830561    -5.307724     0.531115
H     1.368851    -6.118375     0.230987
H    -1.204135    -3.241543    -2.905809
O    -1.028080    -3.921725    -3.569130
H    -0.900527    -4.770381    -3.103800
H    -2.781555     3.294136     4.707288
O    -1.800246     3.294041     4.674372
H    -1.507406     2.888990     5.509018
H     0.957571     5.031573     4.090632
O     0.010926     5.261319     4.143051
H    -0.459457     4.455801     4.396517
H    -1.706903    -4.639365    -0.404289
O    -0.940850    -5.179816    -0.120983
H    -1.287663    -5.869968     0.453771
H    -3.917002     5.848619    -2.585106
O    -4.265575     5.015217    -2.918873
H    -4.109714     4.985092    -3.887126
H    -2.412085    -3.690301     1.906983
O    -2.428675    -4.596292     2.278623
H    -1.488522    -4.832731     2.419087
H    -4.673750    -2.963806    -2.926824
O    -3.820373    -3.192763    -3.333149
H    -3.488039    -3.987766    -2.871318
H     0.343022     1.370030     4.611997
O     0.847919     2.132702     4.282432
H     0.894046     2.788672     4.992257
H    -4.629537    -5.160155    -1.609195
O    -5.332770    -4.811112    -1.034467
H    -5.119604    -5.168995    -0.151760
H     2.357285    -6.443663    -4.077274
O     2.019696    -6.119837    -3.222145
H     2.454289    -6.696116    -2.561310
H     0.490639    -3.345786    -4.030361
O     1.293238    -2.975171    -4.450288
H     0.973971    -2.600962    -5.298028
H     1.976829    -1.748671     2.966201
O     2.134706    -2.678138     2.744661
H     1.449802    -2.890303     2.076130
H    -2.995917    -1.787639    -3.230634
O    -2.576092    -0.900451    -3.160451
H    -3.232512    -0.254947    -3.478524
H    -3.191723     4.976739     1.089923
O    -3.973842     5.350502     0.636454
H    -4.391066     5.904033     1.344762
H     0.879681     2.257176     2.592804
O     0.981634     2.257330     1.621691
H     1.710154     1.636599     1.455262
H     0.189199     5.674343    -0.741665
O     0.710021     6.339794    -1.246702
H     0.849240     7.137435    -0.687185
H     0.335579     7.038448     2.614072
O    -0.024916     6.660900     1.794629
H     0.640866     5.993075     1.530654
H    -2.472349     0.207645     3.329906
O    -2.692597    -0.609276     3.830861
H    -1.932551    -0.649763     4.453083
H    -0.889634     0.537544     6.017358
O    -0.613602     0.022358     5.240785
H     0.100984    -0.580788     5.525354
H     0.731289    -4.988195     1.948179
O     0.188817    -5.102758     2.751781
H     0.335178    -6.024331     3.019655
H    -2.088454    -8.081613     0.399073
O    -1.767880    -7.596767     1.186970
H    -2.555352    -7.289163     1.643478
H    -0.381937     6.887315    -2.303691
O    -1.128873     7.308138    -2.801324
H    -1.919110     7.176905    -2.239173
H    -1.112829     4.317961     0.582969
O    -0.739165     4.384167    -0.312433
H    -1.444557     4.143327    -0.946697
H    -4.407835     2.734440     3.505784
O    -4.407642     2.900330     4.471181
H    -4.489286     2.015174     4.876039
H     2.039892    -3.583736     4.219934
O     1.976912    -4.060369     5.070777
H     2.481528    -3.525122     5.704567
H     4.705775    -3.174462     0.819097
O     4.546468    -3.094520    -0.147312
H     3.686262    -2.619037    -0.229334
H    -2.708288    -0.734676    -1.367562
O    -3.036983    -0.469684    -0.492011
H    -3.838551     0.055184    -0.697220
H    -1.598918    -0.729446    -4.645726
O    -1.091927    -0.508647    -5.448116
H    -0.383672     0.088228    -5.160022
H     1.812941    -1.681509    -3.393512
O     1.903825    -0.937647    -2.766414
H     1.125221    -0.361523    -2.895253
H     3.679414    -3.112053     2.529905
O     4.639067    -3.338686     2.456352
H     4.695646    -4.299255     2.579075
H     3.449004    -6.114671     3.088354
O     3.805134    -5.908959     2.189373
H     3.067281    -5.562452     1.647403
H    -3.332047     1.636290    -4.183329
O    -4.176125     1.162853    -3.995496
H    -4.394812     1.303596    -3.038443
H    -5.081051     4.149085     0.071137
O    -5.517523     3.282466    -0.036139
H    -6.447878     3.400705    -0.318571
H     6.749752    -1.147675    -1.370835
O     5.976366    -1.002259    -0.819694
H     5.558822    -1.871756    -0.626410
H     4.614387    -3.133999    -2.490763
O     3.747080    -2.962145    -2.907357
H     3.751556    -3.577354    -3.666214
H     4.446512    -2.296172     5.605417
O     4.104258    -2.766150     6.396197
H     4.441104    -3.670098     6.310512
H    -0.762198     6.326203     5.094077
O    -1.360638     6.898183     5.634336
H    -1.375874     7.777194     5.196786
H     4.711115    -0.106135    -1.472115
O     3.943164     0.435863    -1.733757
H     3.251874    -0.164515    -2.066929
H    -0.738172     4.553882    -4.026839
O    -1.522020     5.096066    -4.232606
H    -1.372738     5.961236    -3.806449
H     0.665706     3.230915    -2.652572
O     0.673513     3.612033    -3.559163
H     0.722481     2.851528    -4.148423
H    -5.361938    -5.200544     1.755462
O    -4.663564    -5.792230     1.398401
H    -3.824276    -5.375456     1.671482
H     7.900969    -1.639806    -4.043561
O     7.641186    -1.331582    -3.143621
H     7.151776    -0.488132    -3.296057
H     3.727566    -5.023215    -5.321427
O     4.491820    -4.651879    -4.840333
H     4.875079    -5.364447    -4.295786
H    -3.777684     0.000406     4.921570
O    -4.379826     0.460135     5.556038
H    -5.038915    -0.200734     5.844082
H     3.489856    -5.918926    -0.553954
O     4.362228    -5.668149    -0.870044
H     4.435856    -4.706352    -0.721499
H     5.016268    -0.292158    -4.166626
O     4.486226    -1.004615    -4.561687
H     4.157190    -1.590411    -3.846959
H    -1.161504     1.600771    -3.940699
O    -1.812996     2.222060    -4.323286
H    -1.456028     2.557873    -5.168444
H     4.912337    -6.286643    -2.350432
O     5.247781    -6.605698    -3.217329
H     6.065500    -7.087304    -3.031369
H     8.765792    -5.046653    -2.943698
O     8.074509    -5.467883    -2.388442
H     8.111097    -6.424849    -2.493737
H     2.337835     4.736301     0.465415
O     1.758366     4.713436     1.236282
H     1.402714     3.792077     1.309323
H    -4.402149    -2.650295     4.205625
O    -5.296739    -2.311878     4.004141
H    -5.161203    -1.527895     3.432145
H    -5.829006    -3.201530     1.287794
O    -6.290952    -3.762718     1.953302
H    -6.104293    -3.330603     2.805934
H     1.683392     3.454614     6.870137
O     1.059703     3.971078     6.338064
H     0.275893     4.119840     6.909682
H     5.013539    -2.161081     3.600715
O     5.032078    -1.445734     4.267991
H     4.218940    -0.890609     4.113372
H     2.410219    -5.579983     4.805109
O     2.792472    -6.461817     4.541406
H     2.048814    -7.044165     4.364175
H     2.282517    -4.468537    -6.817957
O     2.116821    -4.960983    -6.003197
H     1.847956    -4.272372    -5.346956
H     6.459924    -4.073513    -0.525620
O     7.214311    -4.476370    -0.064153
H     7.722865    -4.894921    -0.786346
H    -1.731342     4.464387     7.710315
O    -0.833023     4.562951     8.096917
H    -0.654443     5.522433     8.125715
H    -5.116127     5.720990    -5.584876
O    -4.506746     4.959059    -5.607534
H    -3.749591     5.177445    -6.172210
H     3.269396    -2.506586    -8.407970
O     3.188344    -3.008872    -7.578986
H     4.072001    -2.958521    -7.171289
H    -0.667868     8.849289    -2.248584
O    -0.547075     9.675841    -1.726060
H     0.215113     9.500594    -1.149489
H     2.074734    -0.917990     5.199470
O     1.502995    -1.448150     5.784057
H     1.594984    -1.106451     6.682853
H     5.225738    -1.973196    -5.706825
O     5.578951    -2.735499    -6.231061
H     5.301274    -3.529380    -5.720423
H     5.713737    -5.210134     4.657342
O     5.190921    -5.130226     5.484113
H     4.470771    -5.763318     5.395174
H    -3.972184     1.118904     6.999081
O    -3.781880     1.591371     7.845215
H    -4.659113     1.973784     8.106990
H    -1.862188     9.627512    -0.713653
O    -2.722601     9.497120    -0.240209
H    -3.335092     10.125511    -0.626173
H    -5.946126     4.702931    -2.932317
O    -6.854277     4.583171    -3.277642
H    -6.761530     3.884041    -3.957833
H     0.122510    -7.045697    -1.185068
O     0.587238    -7.483853    -0.438877
H    -0.092129    -7.683190     0.208429
H    -7.633964     3.796321    -1.972808
O    -7.894564     3.205525    -1.235478
H    -7.749155     2.298665    -1.578957
H     3.980205    -0.901693     6.976002
O     3.986693     0.062509     6.971381
H     4.798582     0.356275     6.541637
H     2.256457     5.820194    -1.161269
O     3.192706     5.529223    -1.047805
H     3.370906     4.993061    -1.843346
H     6.573814    -5.904842     0.641154
O     6.206577    -6.644611     1.170870
H     5.301279    -6.370593     1.398659
H    -3.875547     4.698988     7.789083
O    -3.307161     4.240456     7.128622
H    -3.498617     3.296116     7.234558
H     5.791129    -7.919938     0.096908
O     5.506159    -8.604466    -0.544716
H     4.675693    -8.279884    -0.937163
H    -0.558264     2.019542     7.692369
O    -1.190748     1.956736     6.956515
H    -2.059235     1.811376     7.351723
H    -6.373063    -0.126914     1.046986
O    -6.692229    -0.207320     0.133469
H    -7.610395    -0.480171     0.149370
H    -5.354003    -3.059719    -0.616230
O    -5.104009    -2.359887     0.013098
H    -5.675554    -1.587420    -0.171616
H     4.314640     5.599782     0.338981
O     4.647896     5.697128     1.244811
H     3.951884     6.203691     1.698974
H    -9.027763    -1.741582    -2.278115
O    -8.481143    -1.542305    -1.490628
H    -8.607088    -2.282193    -0.856483
H    -5.517811     3.496807    -5.526343
O    -6.033805     2.783325    -5.114753
H    -5.366064     2.197463    -4.703452
H     3.196957    -0.843844    -5.665860
O     2.341977    -0.962943    -6.132091
H     2.428610    -1.809499    -6.611157
H     8.132227    -1.289059    -6.036335
O     8.144949    -2.157363    -5.588455
H     7.287216    -2.557053    -5.834837
H     7.633904     1.047350    -6.311722
O     7.444763     0.201014    -6.729102
H     6.462718     0.154145    -6.765487
H    -7.842527    -3.700897     0.897491
O    -8.520766    -3.592616     0.213173
H    -8.420192    -4.349019    -0.391935
H    -2.418389     8.739415     1.320398
O    -2.266615     8.148015     2.071016
H    -1.495109     7.597627     1.846186
H    -4.451234     6.423860     3.512422
O    -4.621884     6.853241     2.657707
H    -3.859753     7.441573     2.521165
H     3.405903     3.483471    -3.569081
O     3.250587     4.451943    -3.471222
H     2.285603     4.514914    -3.579581
H    -6.099053    -1.590353    -3.463780
O    -6.181307    -2.173199    -2.682330
H    -6.966370    -1.869928    -2.173068
H     6.471898     1.057111     4.739618
O     6.076272     1.591704     5.444806
H     6.261806     2.512209     5.157860
H     1.372077     1.764655    -5.824005
O     1.179964     1.165451    -5.071447
H     1.543945     0.303999    -5.346183
H    -2.494370     2.925028     10.485485
O    -2.279841     2.019117     10.208404
H    -2.876439     1.821334     9.474608
H     7.636347    -0.481075     3.077936
O     6.884863     0.092248     3.248156
H     6.193539    -0.511080     3.624702
H    -5.629998    -8.050061    -0.750743
O    -4.895462    -8.119975    -0.104068
H    -4.901511    -7.304950     0.421417
H    -5.163409    -0.095649    -4.729494
O    -5.778808    -0.807848    -4.972308
H    -6.617693    -0.367251    -5.169600
H     1.904928    -0.147717    -7.526778
O     1.704111     0.331683    -8.365563
H     2.273899    -0.073764    -9.025640
H     4.794551    -1.222635    -9.286928
O     3.877361    -1.155409    -9.625192
H     3.957055    -1.561282    -10.495644
H     7.576526    -2.558565     4.184725
O     7.724524    -2.590441     3.225250
H     7.232784    -3.381054     2.949758
H     6.742206    -5.878296     2.654483
O     6.801934    -5.205767     3.358282
H     7.677563    -5.290722     3.776694
H    -1.834093     8.942006     3.525676
O    -1.587853     9.243285     4.425597
H    -2.437346     9.371795     4.880909
H    -7.379677     1.588162    -5.258973
O    -7.952943     0.841677    -5.017380
H    -8.855669     1.238784    -4.940594
H     7.022302    -1.034480    -8.304464
O     6.424924    -1.739592    -8.591723
H     6.165792    -2.170093    -7.754347
H    -1.675338     6.282363    -7.005933
O    -2.072467     5.455615    -6.735798
H    -1.823801     5.320605    -5.772975
H    -0.003959     3.285135     9.028417
O     0.195080     2.364763     9.279796
H    -0.603124     2.096551     9.784333
H     6.774810    -2.739014    -2.721095
O     6.245724    -3.486071    -2.384657
H     6.716340    -4.294916    -2.633427
H    -4.056827    -3.046231    -4.969659
O    -4.210625    -2.930017    -5.934028
H    -4.759398    -2.137864    -5.987585
H     1.978384     2.164963     8.467091
O     2.642523     2.281890     7.778039
H     3.066796     1.413127     7.659209
H    -6.884884    -5.196876    -1.433142
O    -7.799611    -5.467545    -1.680576
H    -7.933428    -5.061390    -2.561897
H    -3.833791     5.236713     5.707984
O    -3.802367     6.007834     5.120637
H    -2.869161     6.303952     5.216691
H    -7.873754     0.092977    -1.981362
O    -7.385396     0.819594    -2.391244
H    -7.612783     0.812188    -3.344774
H     5.846784     0.155294     0.407856
O     5.623108     0.873905     1.031369
H     6.132803     0.676340     1.844073
H    -6.218558     3.279100     7.396712
O    -6.090176     2.757520     8.223197
H    -6.688623     1.995215     8.131052
H     2.307034    -8.050711    -0.885774
O     2.984897    -8.033999    -1.581137
H     2.761567    -8.745610    -2.197724
H    -2.720852    -3.926658    -6.226193
O    -1.967055    -4.493036    -5.995356
H    -1.691382    -4.203627    -5.097407
H    -5.646582     3.739853     5.312167
O    -6.296894     4.132216     5.930777
H    -6.135635     5.076706     5.921382
H    -0.990074    -7.088627    -3.204209
O    -0.519146    -6.420534    -2.672470
H     0.387911    -6.346827    -3.053307
H     4.445853     2.018291     5.132325
O     3.503812     2.255971     5.012441
H     3.118712     2.267571     5.894056
H     4.103757     4.653123     6.315677
O     4.183864     5.385980     5.700713
H     3.617135     5.147686     4.928436
H     2.763344     3.620801     3.931817
O     2.584049     4.561249     3.769804
H     2.464757     4.663712     2.803738
H     9.404521     0.250790    -1.071216
O     8.596865     0.409267    -0.579039
H     8.422616    -0.411574    -0.088682
H    -2.111425     5.284280     10.663391
O    -2.832059     4.652998     10.891568
H    -3.051664     4.826026     11.807248
H     7.989435    -2.978912     0.311603
O     8.409048    -2.132578     0.570362
H     8.342022    -2.131585     1.532645
H     5.369610     3.675865     3.536293
O     6.024865     3.939853     4.204081
H     5.610047     4.654600     4.708805
H    -4.218253     4.985195     9.794645
O    -4.851195     5.137819     9.072858
H    -5.461262     4.387753     9.066643
H    -6.990497    -3.464217    -3.514967
O    -7.609266    -4.075706    -3.966258
H    -7.086664    -4.513428    -4.670088
H     0.015132     6.096936     10.788654
O    -0.850021     6.427553     10.542334
H    -0.734687     6.861947     9.677863
H     2.598540     1.534000    -4.106990
O     3.476522     1.886801    -3.865623
H     3.796096     1.369785    -3.096282
H    -6.967827    -0.250576     7.204364
O    -7.478432     0.525510     7.487740
H    -8.101393     0.710629     6.783888
H    -2.710154    -9.861576    -0.883667
O    -2.648800    -8.919120    -1.039326
H    -3.555752    -8.555610    -0.797965
H    -10.062112     3.089355    -4.901214
O    -10.177525     2.170477    -4.624468
H    -10.393943     2.249990    -3.674505
H    -2.054601    -3.034312     4.590370
O    -2.928473    -3.476817     4.657636
H    -2.920546    -4.091176     3.898548
H    -0.152441    -7.979181     2.441780
O     0.673239    -7.769112     2.891185
H     1.392470    -8.060782     2.303464
H     6.716564    -2.374097     6.378119
O     7.167771    -3.081022     5.911925
H     6.539284    -3.816951     5.870181
H    -5.263145    -2.030108     6.922136
O    -5.940305    -1.531537     6.439923
H    -5.922520    -1.904489     5.529077
H     0.845774     3.079620    -7.110540
O     1.763813     2.750209    -7.165537
H     1.752413     2.005836    -7.795920
H    -3.969826     8.733974     6.698749
O    -3.967139     8.735995     5.741384
H    -4.090112     7.809345     5.469525
H    -2.070940     10.335898    -2.703352
O    -2.972898     10.516975    -3.004553
H    -2.902316     11.153576    -3.715217
H     9.426441    -4.043430     4.025008
O     9.148001    -4.725053     4.644337
H     8.716652    -4.256987     5.370187
H    -0.706785    -5.959529    -5.876077
O    -0.002093    -6.525341    -5.543889
H     0.832381    -6.060846    -5.760151
H     1.816377     8.291062     0.692436
O     1.512976     8.616133    -0.183855
H     2.327796     8.658047    -0.713792
H     3.507454     2.978225    -6.657627
O     4.335052     2.687896    -6.247857
H     4.088501     2.412138    -5.339969
H     3.727913     7.153059    -1.205609
O     3.932101     8.090111    -1.414813
H     4.301614     8.038669    -2.308281
H     4.399734     0.060947    -7.918296
O     4.789250     0.195441    -7.052778
H     4.604619     1.124189    -6.797307
H     6.036205     1.963125    -0.472233
O     6.601709     2.160245    -1.232898
H     7.427246     1.682020    -1.039853
H     6.714009    -8.394723    -1.647738
O     7.350328    -8.180008    -2.383088
H     7.718900    -9.012629    -2.673251
H    -5.274731    -5.761992    -5.445210
O    -5.893393    -5.090015    -5.757077
H    -5.343809    -4.319657    -5.990617
H     0.670753     7.157306     7.623588
O    -0.231072     7.181319     7.982629
H    -0.786067     7.198234     7.164813
H    -8.878431    -2.820923    -4.129546
O    -9.400829    -2.014312    -3.958904
H    -9.115881    -1.346132    -4.586050
H    -2.385193    -5.969637    -2.180074
O    -3.263922    -5.684368    -2.447809
H    -3.449608    -6.055232    -3.335578
H    -2.960222    -5.868025    -5.445857
O    -3.558710    -6.481435    -4.976256
H    -3.074921    -7.301355    -4.813622
H    -1.384460     3.767753    -6.977407
O    -0.842759     3.012675    -6.707899
H    -1.075785     2.229007    -7.262137
H    -0.188568     0.468440    -8.224487
O    -1.085063     0.700693    -7.938980
H    -1.259693     0.171644    -7.144723
H    -10.420274     4.056863    -2.733024
O    -10.486461     3.275821    -2.168005
H    -9.657135     3.248912    -1.659072
H     4.579575     4.098042     1.732327
O     4.373527     3.175343     2.006898
H     5.090771     2.602380     1.723209
H     6.494997     1.446101    -4.217841
O     6.194375     0.817158    -3.527065
H     6.222136     1.309076    -2.680952
H     9.648598    -2.186602    -0.940976
O     9.924927    -1.969088    -1.840165
H     9.124381    -1.628481    -2.281692
H     9.988616    -3.271938    -3.113717
O     9.724509    -3.920417    -3.793417
H     9.329664    -3.409245    -4.510361
H    -7.668532    -8.569422    -1.717405
O    -6.931827    -7.972963    -1.842356
H    -7.311478    -7.060781    -1.829119
H     4.159172     6.121629    -3.801068
O     4.818790     6.823821    -3.712409
H     5.655927     6.371116    -3.576714
H     0.129604    -8.132496    -5.260012
O     0.156005    -9.116031    -5.132066
H     0.306850    -9.475741    -6.006250
H    -2.301517    -8.652212    -2.763772
O    -2.067582    -8.383976    -3.671961
H    -1.419398    -8.999407    -4.033080
H     2.219392    -10.781697    -3.549537
O     2.172057    -9.827303    -3.521848
H     1.386353    -9.555764    -4.047454
H     6.841111     3.379126    -4.565631
O     6.901002     2.703769    -5.269216
H     6.107375     2.838264    -5.809617
H    -3.551553    -3.748588     7.693441
O    -3.667195    -2.958720     7.166770
H    -3.414879    -3.193184     6.247552
H    -0.615711    -3.319725    -6.749525
O     0.013497    -2.587583    -6.749923
H    -0.470802    -1.813922    -6.408236
H     0.644356     0.440116     8.745951
O     0.653980    -0.272137     8.102570
H    -0.267589    -0.562599     8.013011
H    -5.838343     7.388713    -4.232578
O    -6.339660     6.771268    -4.796554
H    -6.625047     6.036945    -4.208824
H    -4.287402     9.123167    -3.236073
O    -4.821480     8.325489    -3.133296
H    -4.412224     7.843565    -2.396440
H    -9.711851     5.810826    -4.636453
O    -10.243553     5.004320    -4.476529
H    -11.124250     5.204388    -4.795579
H     2.759520     6.510655     6.161025
O     1.799176     6.604547     6.258863
H     1.457670     5.690912     6.152209
H     4.793870     8.572802     0.114924
O     5.111076     8.570572     1.035938
H     5.519477     7.706473     1.163508
H     4.172578    -7.383180    -4.380046
O     3.416485    -7.667653    -4.925146
H     3.136558    -8.510314    -4.552594
H     0.364242     8.657617     4.262661
O     1.043847     8.015758     4.032343
H     1.270739     7.519832     4.845007
H     5.237690     4.231883    -3.145693
O     6.199227     4.202537    -3.093178
H     6.408638     3.619540    -2.346723
H    -2.569713    -1.567676     7.555850
O    -2.061320    -0.774264     7.779704
H    -2.688835    -0.151005     8.156038
H    -9.033324     7.950211    -4.127294
O    -8.968424     7.368915    -4.886457
H    -8.010857     7.207581    -5.021734
H     3.559702    -8.961948     1.045385
O     2.881363    -8.332770     1.296133
H     3.353659    -7.527470     1.580061
H     3.574295     8.187507     1.857924
O     2.785262     7.621435     1.967368
H     2.337710     7.852750     2.794027
N     5.529238    -3.011476    -11.059515
H     6.106664    -3.241121    -11.791956
H     6.125941    -2.774037    -10.333125
