33

H    -0.151110    -3.448939     3.724397
O    -0.479699    -2.664235     4.191278
H     0.202857    -2.446215     4.848170
H    -2.447080    -3.629957     1.859620
O    -2.487626    -4.517569     2.281451
H    -1.558385    -4.833300     2.305582
H     1.976464    -1.728904     2.894763
O     2.103982    -2.679769     2.760779
H     1.463594    -2.901613     2.053400
H     0.733352    -5.106492     1.868971
O     0.180149    -5.106327     2.678316
H     0.293047    -6.019366     3.003883
H     2.039833    -3.617761     4.303190
O     2.022964    -4.081610     5.166894
H     2.541159    -3.496386     5.756727
H     2.452951    -5.654346     4.851989
O     2.823334    -6.534983     4.591526
H     2.074417    -7.123629     4.458260
H     2.057276    -0.773597     5.259691
O     1.518398    -1.335471     5.850037
H     1.529309    -0.924993     6.733684
H    -2.181758    -2.962140     4.594042
O    -2.973589    -3.528534     4.706311
H    -2.947564    -4.062895     3.877586
H    -0.182492    -8.066666     2.389118
O     0.653028    -7.883597     2.837799
H     1.353402    -8.137998     2.205663
H    -3.702782    -3.591584     7.844881
O    -3.728753    -2.882901     7.202256
H    -3.514622    -3.275852     6.328125
N    -0.550861    -5.487440     5.701938
H    -1.273577    -4.870721     5.533660
H     0.239951    -4.927920     5.695707
