603

H     0.211389     3.033158    -0.659923
O     0.737085     2.368347    -1.155060
H     1.674423     2.496021    -0.876667
H    -0.074749    -1.307512     3.169405
O     0.306875    -0.607894     2.616851
H    -0.164430     0.206222     2.859091
H    -2.389611     2.412177    -0.528100
O    -2.179821     1.942805     0.296494
H    -2.195111     0.994588     0.073355
H    -4.661616     0.548394     2.184163
O    -4.980459    -0.384393     2.194183
H    -4.470238    -0.862773     1.532428
H     0.065029    -0.309456     0.968475
O    -0.124546    -0.070368     0.039713
H     0.215036     0.826721    -0.073928
H    -0.154574    -3.575210     3.796464
O    -0.437830    -2.745694     4.214652
H     0.207532    -2.571554     4.917108
H    -4.881820     2.532534     1.330301
O    -4.245207     2.122799     1.947591
H    -3.399778     2.105038     1.439530
H    -3.233273     3.900887    -2.205013
O    -2.495692     3.304558    -1.972659
H    -2.135115     3.016516    -2.831175
H    -0.120129    -3.803282     0.519267
O     0.219286    -2.984687     0.934855
H    -0.567571    -2.499083     1.249058
H    -2.375441    -1.537745     2.479967
O    -2.188117    -2.004113     1.638597
H    -2.441407    -1.414698     0.909450
H     2.079610    -1.443534    -1.098765
O     2.313179    -1.698811    -0.182990
H     1.523530    -2.123591     0.203809
H    -1.386412     1.828485     1.925286
O    -1.488951     1.429915     2.799374
H    -1.469716     2.139925     3.466623
H     0.219858    -2.701683    -1.550907
O    -0.532868    -2.087241    -1.612102
H    -0.357013    -1.363068    -0.974347
H    -3.426083    -2.923988    -0.385018
O    -2.708419    -3.414802    -0.806675
H    -1.997124    -2.783761    -1.019756
H     2.757719     0.139275     2.960129
O     2.842822    -0.040015     3.920353
H     2.938210     0.848630     4.325807
H    -3.518685     6.382462    -0.536539
O    -3.277977     7.045439    -1.235985
H    -3.138196     7.890231    -0.764635
H     3.894653     0.585661     1.209794
O     2.941535     0.410685     1.314750
H     2.710666    -0.352170     0.748112
H    -5.767865     0.845141    -1.606100
O    -4.857846     1.173077    -1.478587
H    -4.970137     2.001234    -0.966789
H    -1.210926     5.398435     2.226108
O    -1.835538     4.652064     2.104977
H    -1.915919     4.230904     2.966290
H     3.487354     2.765778     0.449281
O     3.260025     2.724603    -0.495478
H     3.586004     1.874908    -0.833714
H     1.506508    -4.696157    -2.230381
O     1.567261    -3.917362    -1.659077
H     2.362573    -3.455687    -2.005719
H    -0.904480    -0.083200    -2.534578
O    -0.269522     0.569935    -2.856130
H    -0.012777     1.151754    -2.117402
H     1.705807    -4.683274    -0.157569
O     1.814216    -5.321942     0.582664
H     1.350107    -6.132445     0.286591
H    -1.209283    -3.263380    -2.868062
O    -1.031813    -3.946151    -3.528492
H    -0.908495    -4.793435    -3.059072
H    -2.788981     3.310435     4.713484
O    -1.807945     3.310037     4.681778
H    -1.516000     2.906039     5.517402
H     0.956879     5.036580     4.098111
O     0.010141     5.268784     4.145189
H    -0.461734     4.465123     4.402209
H    -1.722051    -4.648914    -0.361598
O    -0.957753    -5.191119    -0.077112
H    -1.305747    -5.875145     0.504257
H    -3.901220     5.835362    -2.592519
O    -4.250832     5.001565    -2.924268
H    -4.092563     4.967116    -3.891823
H    -2.429186    -3.687873     1.945392
O    -2.448991    -4.593444     2.317769
H    -1.509612    -4.830347     2.464044
H    -4.677700    -2.976637    -2.898155
O    -3.824305    -3.209770    -3.302216
H    -3.494652    -4.002835    -2.834970
H     0.333787     1.377854     4.633074
O     0.826012     2.146093     4.296693
H     0.886137     2.797252     5.009628
H    -4.641836    -5.167764    -1.570266
O    -5.345942    -4.814719    -0.999168
H    -5.135385    -5.168544    -0.114000
H     2.348276    -6.480559    -4.016206
O     2.008985    -6.150330    -3.164302
H     2.439136    -6.724746    -2.498551
H     0.488914    -3.376586    -3.986399
O     1.292108    -3.009313    -4.409036
H     0.972718    -2.638770    -5.258030
H     1.980158    -1.751770     3.012892
O     2.125486    -2.681817     2.785812
H     1.436895    -2.887550     2.120736
H    -2.996384    -1.806364    -3.203880
O    -2.573939    -0.919876    -3.139737
H    -3.229648    -0.274221    -3.458788
H    -3.185864     4.977800     1.087153
O    -3.965672     5.352096     0.629862
H    -4.383178     5.909307     1.335291
H     0.871815     2.257058     2.609713
O     0.977584     2.253993     1.638751
H     1.702455     1.626592     1.478747
H     0.201287     5.658232    -0.739515
O     0.725745     6.320436    -1.245690
H     0.863677     7.120019    -0.688744
H     0.342751     7.036766     2.611083
O    -0.015299     6.659466     1.790474
H     0.647437     5.986097     1.533013
H    -2.483732     0.215872     3.350402
O    -2.706339    -0.598259     3.854543
H    -1.946502    -0.636499     4.478172
H    -0.905176     0.552998     6.039254
O    -0.629805     0.036512     5.263881
H     0.088350    -0.564471     5.550301
H     0.712984    -4.991045     1.999701
O     0.163820    -5.103773     2.798666
H     0.311383    -6.022959     3.073661
H    -2.112738    -8.085981     0.456058
O    -1.791908    -7.599125     1.242337
H    -2.578697    -7.287147     1.697021
H    -0.363912     6.866148    -2.307178
O    -1.108432     7.286279    -2.808890
H    -1.900499     7.160113    -2.247878
H    -1.106545     4.312105     0.588461
O    -0.731616     4.373766    -0.306984
H    -1.436684     4.131176    -0.940710
H    -4.413426     2.748348     3.510233
O    -4.416528     2.918952     4.474667
H    -4.499297     2.035641     4.883457
H     2.023879    -3.581046     4.267324
O     1.953378    -4.052569     5.120022
H     2.477978    -3.522296     5.745937
H     4.687173    -3.198930     0.870118
O     4.537680    -3.111992    -0.101360
H     3.674397    -2.641866    -0.184333
H    -2.710388    -0.745976    -1.344553
O    -3.040661    -0.475847    -0.471517
H    -3.840635     0.049765    -0.680251
H    -1.595534    -0.758233    -4.620948
O    -1.084175    -0.542061    -5.422415
H    -0.376549     0.054608    -5.132922
H     1.812074    -1.711242    -3.355388
O     1.905982    -0.961991    -2.735446
H     1.125928    -0.387632    -2.864256
H     3.681692    -3.110449     2.582685
O     4.631874    -3.361351     2.481510
H     4.668045    -4.319553     2.625514
H     3.421938    -6.122476     3.152473
O     3.778623    -5.930403     2.249651
H     3.045120    -5.574424     1.708527
H    -3.323273     1.614717    -4.170969
O    -4.168654     1.144126    -3.983620
H    -4.389532     1.288886    -3.027295
H    -5.074461     4.150822     0.067787
O    -5.512444     3.284881    -0.038974
H    -6.442368     3.404206    -0.321815
H     6.702831    -1.239732    -1.398747
O     5.983511    -1.050691    -0.790683
H     5.535979    -1.901878    -0.569728
H     4.604144    -3.170926    -2.437535
O     3.742515    -2.993155    -2.862155
H     3.746789    -3.614436    -3.616292
H     4.408555    -2.290542     5.656129
O     4.048207    -2.772026     6.444154
H     4.411097    -3.665179     6.370881
H    -0.761365     6.337637     5.091051
O    -1.359178     6.914556     5.627354
H    -1.371040     7.791347     5.185806
H     4.709074    -0.148417    -1.437603
O     3.949710     0.402549    -1.703626
H     3.249905    -0.191845    -2.030759
H    -0.720898     4.527161    -4.021315
O    -1.502606     5.070101    -4.233087
H    -1.353965     5.936360    -3.808656
H     0.676074     3.207651    -2.638345
O     0.689148     3.584758    -3.547199
H     0.733827     2.820836    -4.132204
H    -5.381886    -5.191533     1.792592
O    -4.684469    -5.786011     1.438389
H    -3.844495    -5.370758     1.712422
H     7.899597    -1.688581    -3.996409
O     7.637411    -1.369149    -3.098438
H     7.151167    -0.526013    -3.265846
H     3.724347    -5.068870    -5.263036
O     4.486761    -4.696194    -4.780790
H     4.868058    -5.407671    -4.233253
H    -3.791094     0.019515     4.940076
O    -4.395524     0.483696     5.569478
H    -5.055960    -0.174856     5.859448
H     3.476149    -5.940502    -0.488249
O     4.345896    -5.690034    -0.812288
H     4.420869    -4.728518    -0.663252
H     5.015682    -0.332548    -4.127502
O     4.488909    -1.047267    -4.520466
H     4.155588    -1.630410    -3.804798
H    -1.152615     1.574527    -3.922829
O    -1.800873     2.195521    -4.311605
H    -1.440189     2.527033    -5.156411
H     4.897308    -6.321058    -2.285247
O     5.236913    -6.642691    -3.149718
H     6.050235    -7.129615    -2.958211
H     8.759534    -5.095910    -2.870546
O     8.064719    -5.509312    -2.316520
H     8.094422    -6.467469    -2.417324
H     2.342532     4.718721     0.474723
O     1.760819     4.702942     1.243506
H     1.403599     3.781990     1.324249
H    -4.421054    -2.632866     4.233899
O    -5.314718    -2.294154     4.027943
H    -5.176031    -1.512265     3.453991
H    -5.843041    -3.193414     1.315270
O    -6.308617    -3.750315     1.981693
H    -6.121792    -3.315483     2.833088
H     1.673280     3.466689     6.885549
O     1.053254     3.986219     6.351462
H     0.267571     4.136479     6.919550
H     5.034402    -2.121101     3.661798
O     5.006417    -1.470511     4.380310
H     4.249310    -0.877251     4.175671
H     2.385835    -5.567800     4.863012
O     2.763736    -6.454924     4.602545
H     2.017493    -7.035625     4.431712
H     2.283514    -4.514313    -6.767512
O     2.114815    -5.001960    -5.951505
H     1.846057    -4.311053    -5.297163
H     6.441834    -4.107202    -0.460630
O     7.200169    -4.499479     0.002782
H     7.710828    -4.923009    -0.714443
H    -1.742908     4.491592     7.712036
O    -0.846185     4.590270     8.101925
H    -0.664523     5.548908     8.125701
H    -5.093447     5.697178    -5.594784
O    -4.485492     4.933860    -5.613755
H    -3.726820     5.148461    -6.177605
H     3.314880    -2.524992    -8.410695
O     3.225218    -3.057457    -7.609483
H     4.100388    -3.034851    -7.178732
H    -0.644931     8.829349    -2.262307
O    -0.522701     9.658329    -1.744103
H     0.236561     9.483361    -1.163608
H     2.061244    -0.920087     5.230843
O     1.472494    -1.432652     5.815411
H     1.581297    -1.099042     6.714990
H     5.231785    -2.024429    -5.660090
O     5.583857    -2.790134    -6.178693
H     5.302825    -3.580561    -5.664853
H     5.688947    -5.216089     4.719471
O     5.168960    -5.138006     5.547307
H     4.440723    -5.761140     5.455372
H    -3.989531     1.148655     7.010672
O    -3.801174     1.624807     7.855166
H    -4.678115     2.009772     8.113067
H    -1.841153     9.617799    -0.733732
O    -2.702919     9.491215    -0.262170
H    -3.313187     10.119488    -0.651776
H    -5.932194     4.692641    -2.939848
O    -6.839523     4.574181    -3.287707
H    -6.747005     3.871363    -3.964037
H     0.103178    -7.062301    -1.126326
O     0.566177    -7.500028    -0.379278
H    -0.113475    -7.693215     0.269640
H    -7.624436     3.794246    -1.980753
O    -7.888425     3.207450    -1.241603
H    -7.743839     2.298647    -1.580205
H     3.938853    -0.900114     7.017885
O     3.963027     0.063697     7.033994
H     4.761062     0.340384     6.563681
H     2.269535     5.798648    -1.152365
O     3.206255     5.507362    -1.039812
H     3.381023     4.965474    -1.832009
H     6.550994    -5.932081     0.711740
O     6.180027    -6.671197     1.237575
H     5.277497    -6.391900     1.470900
H    -3.887137     4.731139     7.785281
O    -3.318930     4.269183     7.127261
H    -3.510160     3.325261     7.238052
H     5.766916    -7.946048     0.170451
O     5.484678    -8.630668    -0.472944
H     4.653423    -8.307646    -0.865056
H    -0.573290     2.041861     7.707274
O    -1.205824     1.982275     6.971178
H    -2.074322     1.836683     7.365754
H    -6.377610    -0.118927     1.058096
O    -6.697105    -0.201678     0.144642
H    -7.615654    -0.473018     0.161917
H    -5.363759    -3.061319    -0.588677
O    -5.113183    -2.359049     0.037567
H    -5.682722    -1.586157    -0.151151
H     4.320186     5.578355     0.352726
O     4.660192     5.676007     1.256272
H     3.966574     6.183882     1.712874
H    -9.030631    -1.742003    -2.264685
O    -8.484769    -1.540517    -1.477365
H    -8.613864    -2.276955    -0.839709
H    -5.500363     3.474344    -5.527766
O    -6.019151     2.763713    -5.114924
H    -5.354187     2.178175    -4.698609
H     3.204124    -0.887819    -5.628752
O     2.350419    -1.005859    -6.098442
H     2.434659    -1.856010    -6.569852
H     8.140090    -1.349481    -5.985891
O     8.146401    -2.211517    -5.525241
H     7.291760    -2.613243    -5.781128
H     7.645730     0.993159    -6.272719
O     7.459577     0.141601    -6.680159
H     6.478144     0.092131    -6.724214
H    -7.857150    -3.688976     0.922299
O    -8.533446    -3.582523     0.235655
H    -8.433211    -4.342261    -0.365236
H    -2.403510     8.739358     1.303099
O    -2.255136     8.150816     2.056490
H    -1.484325     7.597493     1.836328
H    -4.447670     6.438155     3.500327
O    -4.615124     6.864362     2.643255
H    -3.851177     7.450232     2.506548
H     3.418755     3.446296    -3.550401
O     3.268228     4.416034    -3.457915
H     2.303213     4.481913    -3.566685
H    -6.099048    -1.602195    -3.444449
O    -6.184198    -2.181825    -2.661112
H    -6.969428    -1.874650    -2.154242
H     6.205892     0.762481     4.738458
O     5.976993     1.334408     5.491632
H     6.241152     2.233950     5.214883
H     1.386586     1.724752    -5.801927
O     1.192011     1.129820    -5.047075
H     1.552737     0.265468    -5.316251
H    -2.517468     2.966275     10.492129
O    -2.305820     2.057910     10.221350
H    -2.899064     1.858588     9.485289
H     7.794805     0.490298     2.921174
O     6.929303     0.082611     3.147226
H     7.071289    -0.881334     3.206960
H    -5.651055    -8.051150    -0.701575
O    -4.918135    -8.120202    -0.053076
H    -4.923062    -7.302932     0.469066
H    -5.156761    -0.115381    -4.714393
O    -5.772713    -0.827161    -4.956969
H    -6.610514    -0.385628    -5.156863
H     1.918476    -0.196207    -7.493164
O     1.720941     0.276393    -8.337489
H     2.297889    -0.130406    -8.989273
H     4.907027    -1.392781    -9.273497
O     3.983043    -1.162538    -9.557325
H     3.964008    -1.280889    -10.506359
H     7.463234    -2.573858     4.277652
O     7.534210    -2.537341     3.306198
H     7.029020    -3.313945     3.015882
H     6.724007    -5.894398     2.727276
O     6.778986    -5.210652     3.418550
H     7.658723    -5.275675     3.831860
H    -1.823882     8.950372     3.508881
O    -1.578553     9.255950     4.407514
H    -2.428631     9.387013     4.861132
H    -7.367644     1.571184    -5.256489
O    -7.943196     0.826876    -5.013773
H    -8.845098     1.226508    -4.940111
H     6.958358    -1.083329    -8.366759
O     6.377344    -1.804762    -8.631014
H     6.146876    -2.254195    -7.799519
H    -1.648765     6.244763    -7.010435
O    -2.045774     5.418448    -6.738803
H    -1.801200     5.288070    -5.774078
H    -0.021839     3.313183     9.040720
O     0.173779     2.393936     9.297850
H    -0.626465     2.129321     9.800471
H     6.766678    -2.795831    -2.691121
O     6.237793    -3.531633    -2.335988
H     6.703505    -4.347866    -2.569964
H    -4.056486    -3.070254    -4.939016
O    -4.207184    -2.957327    -5.904441
H    -4.754972    -2.164705    -5.961989
H     1.962999     2.178684     8.489087
O     2.626820     2.294818     7.799982
H     3.052550     1.424688     7.684012
H    -6.897612    -5.198508    -1.399326
O    -7.812391    -5.468169    -1.648018
H    -7.943289    -5.065389    -2.531198
H    -3.837853     5.260209     5.701737
O    -3.802928     6.029221     5.111596
H    -2.868872     6.322222     5.208543
H    -7.872589     0.091544    -1.972907
O    -7.381948     0.815107    -2.385554
H    -7.607480     0.803574    -3.339332
H     5.747998     0.039923     0.379423
O     5.557998     0.773507     0.997457
H     6.030449     0.524809     1.831093
H    -6.232739     3.315644     7.393078
O    -6.108234     2.798061     8.222635
H    -6.707258     2.036036     8.132265
H     2.290164    -8.070840    -0.816141
O     2.965954    -8.058251    -1.513802
H     2.741106    -8.773578    -2.125454
H    -2.719853    -3.958948    -6.187956
O    -1.965737    -4.524009    -5.954683
H    -1.693286    -4.233418    -5.055910
H    -5.654032     3.764857     5.309012
O    -6.305703     4.162538     5.922962
H    -6.139205     5.106103     5.911882
H    -1.003775    -7.111930    -3.149375
O    -0.532926    -6.441320    -2.620896
H     0.376020    -6.373054    -2.997806
H     4.413079     1.976696     5.159471
O     3.488493     2.278969     5.043793
H     3.100018     2.275725     5.923629
H     4.098440     4.649817     6.330435
O     4.207991     5.370414     5.705585
H     3.636914     5.141219     4.935309
H     2.754877     3.625009     3.955779
O     2.581237     4.564599     3.781250
H     2.463072     4.656393     2.814729
H     9.449229     0.021072    -0.874928
O     8.705513     0.341417    -0.342768
H     8.351496    -0.491654     0.029541
H    -2.127092     5.326103     10.660631
O    -2.850302     4.698310     10.890080
H    -3.069842     4.874488     11.805159
H     7.942611    -3.102976     0.464550
O     8.401881    -2.265432     0.702935
H     8.293968    -2.235367     1.664582
H     5.366946     3.619979     3.657346
O     6.047122     3.854238     4.315760
H     5.621622     4.560101     4.834723
H    -4.232783     5.027545     9.788605
O    -4.864574     5.178557     9.065423
H    -5.475346     4.429041     9.060764
H    -6.994459    -3.474579    -3.489228
O    -7.613646    -4.086198    -3.939855
H    -7.090444    -4.528440    -4.640254
H     0.000428     6.131467     10.788004
O    -0.862088     6.466357     10.538127
H    -0.742219     6.895183     9.671561
H     2.607392     1.499660    -4.082441
O     3.487098     1.848276    -3.840352
H     3.799554     1.333172    -3.067101
H    -6.988254    -0.213582     7.215761
O    -7.498626     0.564376     7.494562
H    -8.118790     0.747961     6.787855
H    -2.735173    -9.870257    -0.820063
O    -2.672112    -8.928909    -0.981640
H    -3.578324    -8.562120    -0.742417
H    -10.047046     3.080465    -4.911553
O    -10.165231     2.163017    -4.631273
H    -10.383641     2.247092    -3.682113
H    -2.073753    -3.021263     4.625920
O    -2.950286    -3.459681     4.692059
H    -2.941846    -4.078628     3.937032
H    -0.180283    -7.979807     2.502045
O     0.644750    -7.770500     2.952805
H     1.364977    -8.065487     2.368053
H     6.703537    -2.358901     6.397639
O     7.150848    -3.097648     5.978031
H     6.501375    -3.815630     5.938844
H    -5.287827    -1.998574     6.944893
O    -5.963080    -1.500834     6.459005
H    -5.943397    -1.877804     5.549924
H     0.865757     3.035572    -7.094295
O     1.783657     2.704499    -7.148653
H     1.770150     1.956930    -7.774383
H    -3.966255     8.761834     6.677427
O    -3.962173     8.759592     5.720054
H    -4.086164     7.831737     5.452428
H    -2.043413     10.317631    -2.726535
O    -2.944060     10.499240    -3.031305
H    -2.870197     11.133308    -3.743870
H     9.420012    -4.027325     4.092525
O     9.126838    -4.714133     4.697514
H     8.692155    -4.254155     5.427171
H    -0.712081    -5.994158    -5.824749
O    -0.009766    -6.561720    -5.490533
H     0.826611    -6.100403    -5.704294
H     1.830012     8.277674     0.687942
O     1.530232     8.600417    -0.190525
H     2.346482     8.638572    -0.718168
H     3.525665     2.931318    -6.635950
O     4.351797     2.641564    -6.222889
H     4.101419     2.367328    -5.315552
H     3.742937     7.127838    -1.202740
O     3.952180     8.063298    -1.414730
H     4.320645     8.008291    -2.308164
H     4.425205    -0.008376    -7.879980
O     4.802696     0.141143    -7.011192
H     4.616409     1.072508    -6.768952
H     6.072091     1.891481    -0.502687
O     6.669786     2.133947    -1.225107
H     7.466032     1.610651    -1.043777
H     6.694522    -8.427188    -1.569194
O     7.334354    -8.216805    -2.303726
H     7.700550    -9.051938    -2.589790
H    -5.279885    -5.784862    -5.405308
O    -5.895780    -5.112957    -5.722757
H    -5.343743    -4.344752    -5.957367
H     0.670612     7.176892     7.619243
O    -0.231841     7.207608     7.975640
H    -0.785353     7.220564     7.156779
H    -8.879324    -2.829301    -4.111228
O    -9.400481    -2.020771    -3.945976
H    -9.111945    -1.355978    -4.575057
H    -2.398738    -5.984973    -2.131351
O    -3.275435    -5.698139    -2.404137
H    -3.459912    -6.073837    -3.289826
H    -2.964519    -5.897338    -5.400636
O    -3.566189    -6.506792    -4.930600
H    -3.084960    -7.326936    -4.761144
H    -1.361259     3.730250    -6.969498
O    -0.821005     2.974435    -6.698473
H    -1.058486     2.189275    -7.248047
H    -0.174392     0.419284    -8.199431
O    -1.070725     0.655515    -7.918173
H    -1.248792     0.131904    -7.120806
H    -10.407817     4.058428    -2.748244
O    -10.477313     3.279573    -2.180670
H    -9.649475     3.252681    -1.669222
H     4.579568     4.123034     1.705233
O     4.365615     3.199264     1.979523
H     5.065806     2.635687     1.629458
H     6.501531     1.405523    -4.185443
O     6.203811     0.781247    -3.488271
H     6.230702     1.276909    -2.646035
H     9.672100    -2.299123    -1.052746
O     9.907991    -1.879331    -1.891439
H     9.040875    -1.655242    -2.300317
H     9.994891    -3.293842    -3.046182
O     9.725902    -3.950029    -3.713009
H     9.335799    -3.451259    -4.441535
H    -7.688508    -8.570246    -1.669663
O    -6.950278    -7.976271    -1.797503
H    -7.327629    -7.063077    -1.788459
H     4.176995     6.083346    -3.792743
O     4.838798     6.783958    -3.707561
H     5.674699     6.330568    -3.568276
H     0.117589    -8.168391    -5.196685
O     0.141713    -9.151161    -5.064871
H     0.293942    -9.514922    -5.937119
H    -2.320556    -8.669706    -2.704338
O    -2.083531    -8.406718    -3.613471
H    -1.436063    -9.025911    -3.969256
H     2.198245    -10.814101    -3.469202
O     2.154309    -9.859353    -3.448489
H     1.369226    -9.588859    -3.975301
H     6.853228     3.334883    -4.541680
O     6.913232     2.653484    -5.238655
H     6.121806     2.785050    -5.783378
H    -3.579210    -3.717477     7.728240
O    -3.697213    -2.931123     7.196848
H    -3.440068    -3.169081     6.279843
H    -0.612233    -3.359615    -6.708068
O     0.018107    -2.628057    -6.714774
H    -0.464867    -1.852780    -6.374190
H     0.619070     0.465243     8.774378
O     0.628432    -0.248175     8.132604
H    -0.292579    -0.538514     8.041165
H    -5.814452     7.372467    -4.252133
O    -6.315529     6.753639    -4.814816
H    -6.604485     6.022705    -4.224433
H    -4.261595     9.107880    -3.259122
O    -4.797340     8.311516    -3.155003
H    -4.391734     7.832126    -2.414428
H    -9.690728     5.802389    -4.658440
O    -10.224531     4.997715    -4.496542
H    -11.104430     5.198759    -4.817175
H     2.767044     6.514679     6.161703
O     1.807356     6.612530     6.258166
H     1.461888     5.699202     6.157925
H     4.809875     8.550611     0.114559
O     5.130645     8.552301     1.034298
H     5.528082     7.684235     1.168225
H     4.161660    -7.424205    -4.310768
O     3.406281    -7.708656    -4.856934
H     3.123027    -8.549040    -4.481566
H     0.373242     8.662261     4.253664
O     1.052879     8.019287     4.026493
H     1.277527     7.524697     4.840711
H     5.252321     4.194425    -3.120389
O     6.213675     4.157184    -3.063634
H     6.417523     3.580019    -2.313057
H    -2.596787    -1.539809     7.582232
O    -2.088566    -0.745914     7.804160
H    -2.715853    -0.120408     8.176822
H    -9.008482     7.941996    -4.156350
O    -8.942868     7.357916    -4.913322
H    -7.985396     7.193507    -5.045234
H     3.533887    -8.977725     1.123567
O     2.853279    -8.345949     1.360749
H     3.323599    -7.540204     1.649186
H     3.585850     8.177033     1.860417
O     2.797228     7.611049     1.966889
H     2.345802     7.844532     2.791109
N     9.082816     1.490244     2.202152
H     8.795011     2.409614     2.212238
H     9.072353     1.222122     1.262001
