603

H     0.201606     3.022450    -0.674110
O     0.724229     2.352703    -1.165631
H     1.662873     2.481050    -0.891800
H    -0.080043    -1.305336     3.167418
O     0.314048    -0.606828     2.621653
H    -0.163928     0.207310     2.851752
H    -2.398359     2.404917    -0.530298
O    -2.187694     1.936253     0.294725
H    -2.206455     0.987728     0.072165
H    -4.664925     0.550705     2.191632
O    -4.983348    -0.382014     2.207325
H    -4.479569    -0.862560     1.542165
H     0.061133    -0.312974     0.965744
O    -0.134177    -0.078510     0.037837
H     0.204154     0.818191    -0.084172
H    -0.169186    -3.564620     3.803576
O    -0.441878    -2.731353     4.224269
H     0.206649    -2.565295     4.924262
H    -4.886466     2.532487     1.334789
O    -4.247183     2.124504     1.950746
H    -3.404645     2.104203     1.437803
H    -3.246782     3.888823    -2.210228
O    -2.509453     3.292181    -1.977609
H    -2.151538     3.001212    -2.836448
H    -0.136439    -3.808583     0.524662
O     0.208807    -2.990037     0.941017
H    -0.577252    -2.501451     1.252307
H    -2.382973    -1.535074     2.485175
O    -2.192307    -2.001574     1.645198
H    -2.451831    -1.417423     0.913898
H     2.068736    -1.455909    -1.103858
O     2.300722    -1.707667    -0.186141
H     1.509538    -2.131656     0.198794
H    -1.392385     1.824158     1.918828
O    -1.483230     1.429180     2.796163
H    -1.468979     2.143338     3.459091
H     0.201964    -2.715748    -1.548783
O    -0.550482    -2.100986    -1.608516
H    -0.371789    -1.374798    -0.974507
H    -3.443439    -2.928879    -0.372163
O    -2.727272    -3.423749    -0.790969
H    -2.015141    -2.795940    -1.009178
H     2.769252     0.125847     2.946392
O     2.870113    -0.054422     3.908410
H     2.960819     0.839649     4.310822
H    -3.525038     6.375743    -0.548425
O    -3.285693     7.036403    -1.250189
H    -3.143239     7.882469    -0.781894
H     3.899188     0.575284     1.197081
O     2.948767     0.394134     1.314077
H     2.710242    -0.358970     0.736055
H    -5.783171     0.837582    -1.595439
O    -4.872475     1.164745    -1.470532
H    -4.982703     1.994414    -0.960890
H    -1.209185     5.397411     2.208195
O    -1.834779     4.650602     2.093200
H    -1.913559     4.234206     2.956724
H     3.493516     2.752928     0.431322
O     3.246462     2.708300    -0.507941
H     3.577416     1.864180    -0.856126
H     1.480520    -4.711451    -2.221072
O     1.553274    -3.933481    -1.649948
H     2.344793    -3.473599    -2.008765
H    -0.924035    -0.098270    -2.536438
O    -0.289101     0.553013    -2.861693
H    -0.028936     1.136840    -2.125941
H     1.742327    -4.662654    -0.247435
O     1.866186    -5.330868     0.473334
H     1.305232    -6.082505     0.190115
H    -1.234052    -3.281244    -2.858920
O    -1.057594    -3.966421    -3.517066
H    -0.935758    -4.812022    -3.044350
H    -2.780845     3.317186     4.707337
O    -1.799511     3.313963     4.673767
H    -1.507427     2.913655     5.510957
H     0.963919     5.037095     4.075212
O     0.018181     5.270689     4.126619
H    -0.455042     4.468781     4.386249
H    -1.735924    -4.666394    -0.340004
O    -0.957290    -5.188420    -0.061302
H    -1.281828    -5.896887     0.510097
H    -3.913961     5.822866    -2.602044
O    -4.265692     4.988308    -2.929557
H    -4.110813     4.950604    -3.897634
H    -2.441823    -3.683892     1.954603
O    -2.466209    -4.583345     2.340049
H    -1.528624    -4.828865     2.476880
H    -4.700931    -2.989096    -2.879407
O    -3.848928    -3.223178    -3.285672
H    -3.518717    -4.016218    -2.818305
H     0.337150     1.381808     4.623063
O     0.845428     2.140009     4.288054
H     0.893283     2.801223     4.992845
H    -4.663707    -5.175731    -1.544899
O    -5.365219    -4.820268    -0.971861
H    -5.152072    -5.173993    -0.087228
H     2.305326    -6.489451    -4.031996
O     1.977944    -6.158298    -3.176462
H     2.432957    -6.724612    -2.519916
H     0.460893    -3.397923    -3.983824
O     1.263699    -3.032197    -4.408435
H     0.943643    -2.662679    -5.257608
H     1.958975    -1.754033     3.000096
O     2.112993    -2.685451     2.784016
H     1.426667    -2.897480     2.116401
H    -3.019540    -1.821348    -3.192882
O    -2.596339    -0.934873    -3.131330
H    -3.251747    -0.289814    -3.452012
H    -3.188373     4.975071     1.078318
O    -3.969436     5.348504     0.622758
H    -4.384204     5.908415     1.327478
H     0.874944     2.252269     2.597515
O     0.976557     2.245463     1.626351
H     1.702274     1.620475     1.463874
H     0.193365     5.647674    -0.761059
O     0.716045     6.307691    -1.271349
H     0.858555     7.108779    -0.717619
H     0.347594     7.035520     2.584602
O    -0.014830     6.653450     1.768117
H     0.648274     5.981239     1.508572
H    -2.483178     0.220580     3.352638
O    -2.706940    -0.591355     3.859918
H    -1.946033    -0.632454     4.480721
H    -0.896980     0.564118     6.036138
O    -0.622344     0.043386     5.262845
H     0.088650    -0.561570     5.551354
H     0.638826    -4.937713     1.995522
O     0.165749    -5.029642     2.838598
H     0.250979    -5.965321     3.096334
H    -2.236171    -7.911697     0.675656
O    -2.063706    -7.289044     1.401590
H    -2.937458    -6.970502     1.658344
H    -0.375003     6.851259    -2.331181
O    -1.120940     7.270883    -2.831393
H    -1.911118     7.146660    -2.267517
H    -1.112117     4.305479     0.574541
O    -0.739034     4.364114    -0.321647
H    -1.445804     4.120948    -0.953476
H    -4.410096     2.754504     3.511552
O    -4.408318     2.927471     4.475715
H    -4.492793     2.045487     4.887028
H     2.012957    -3.580315     4.266070
O     1.957693    -4.053029     5.119719
H     2.460583    -3.511123     5.749220
H     4.678141    -3.208114     0.858851
O     4.519574    -3.133602    -0.107623
H     3.661385    -2.654201    -0.192684
H    -2.726689    -0.756229    -1.338040
O    -3.053370    -0.481666    -0.464787
H    -3.854099     0.043047    -0.673270
H    -1.621140    -0.778215    -4.617723
O    -1.113410    -0.564626    -5.421941
H    -0.403303     0.031791    -5.137551
H     1.788998    -1.732689    -3.360354
O     1.883789    -0.984162    -2.739586
H     1.106333    -0.406992    -2.870737
H     3.648281    -3.137017     2.571596
O     4.606414    -3.372838     2.497900
H     4.662561    -4.329608     2.632871
H     3.412186    -6.163821     3.111290
O     3.783990    -6.009559     2.212800
H     3.069017    -5.680261     1.629445
H    -3.345360     1.597248    -4.169939
O    -4.191040     1.128502    -3.978474
H    -4.408346     1.276132    -3.022007
H    -5.081700     4.146748     0.067126
O    -5.520998     3.280839    -0.033705
H    -6.451334     3.399910    -0.315823
H     6.729333    -1.200823    -1.347594
O     5.957954    -1.049970    -0.794905
H     5.537320    -1.916479    -0.596724
H     4.587731    -3.187211    -2.451069
O     3.720071    -3.016397    -2.867154
H     3.721509    -3.636727    -3.621969
H     4.428697    -2.291283     5.639818
O     4.086594    -2.753931     6.434871
H     4.419358    -3.659813     6.355554
H    -0.750452     6.345064     5.070650
O    -1.346355     6.923046     5.607295
H    -1.359006     7.798885     5.163377
H     4.694705    -0.153537    -1.453630
O     3.928271     0.389163    -1.717803
H     3.234692    -0.210967    -2.046704
H    -0.740817     4.506829    -4.036970
O    -1.522727     5.050327    -4.246764
H    -1.370478     5.917856    -3.826354
H     0.659708     3.189195    -2.654387
O     0.667923     3.563625    -3.563903
H     0.713669     2.798486    -4.147326
H    -5.393102    -5.189730     1.820634
O    -4.697795    -5.786328     1.466891
H    -3.856094    -5.369035     1.733846
H     7.875848    -1.717750    -4.017199
O     7.618225    -1.402393    -3.118092
H     7.132688    -0.557935    -3.276761
H     3.690922    -5.095040    -5.266477
O     4.455085    -4.723824    -4.785719
H     4.837019    -5.435086    -4.239496
H    -3.788184     0.029142     4.946624
O    -4.388198     0.495526     5.578510
H    -5.049342    -0.161155     5.871483
H     3.448407    -5.952083    -0.496226
O     4.325054    -5.711195    -0.807311
H     4.403979    -4.748035    -0.668187
H     4.996557    -0.359252    -4.147694
O     4.461236    -1.071505    -4.535911
H     4.133087    -1.651770    -3.816609
H    -1.174429     1.555687    -3.928647
O    -1.823784     2.176495    -4.315870
H    -1.465976     2.505160    -5.163179
H     4.876215    -6.336980    -2.285896
O     5.207546    -6.670008    -3.148792
H     6.026132    -7.148884    -2.961128
H     8.730657    -5.115430    -2.892969
O     8.038703    -5.533416    -2.334691
H     8.076498    -6.490329    -2.433524
H     2.339946     4.710950     0.451026
O     1.761189     4.695730     1.222605
H     1.402380     3.776135     1.302683
H    -4.422115    -2.625730     4.250509
O    -5.315703    -2.284618     4.048112
H    -5.177815    -1.505890     3.469739
H    -5.853962    -3.192085     1.338148
O    -6.318864    -3.745408     2.007982
H    -6.128642    -3.308603     2.857331
H     1.686698     3.478043     6.865318
O     1.064441     3.992904     6.330066
H     0.281541     4.148399     6.901175
H     4.992102    -2.175268     3.632220
O     5.015226    -1.455566     4.293467
H     4.204218    -0.896943     4.137000
H     2.439459    -5.482719     4.894980
O     2.874740    -6.361677     4.675327
H     2.212431    -7.032054     4.857683
H     2.247519    -4.542909    -6.767429
O     2.079875    -5.028860    -5.950097
H     1.813628    -4.336276    -5.296466
H     6.432229    -4.117585    -0.482398
O     7.183205    -4.522802    -0.017049
H     7.691387    -4.946682    -0.736457
H    -1.723693     4.505507     7.701174
O    -0.824639     4.603849     8.086203
H    -0.642823     5.562891     8.107912
H    -5.116257     5.677591    -5.599605
O    -4.509320     4.913522    -5.617797
H    -3.751967     5.125566    -6.184491
H     3.274181    -2.560368    -8.418857
O     3.186432    -3.090738    -7.616032
H     4.063078    -3.066167    -7.187603
H    -0.653976     8.814559    -2.290109
O    -0.529798     9.644480    -1.773803
H     0.232201     9.470734    -1.196513
H     2.061811    -0.907065     5.226269
O     1.491369    -1.432793     5.815984
H     1.582565    -1.082573     6.711554
H     5.199680    -2.052292    -5.676014
O     5.545835    -2.820392    -6.195472
H     5.269992    -3.608642    -5.676642
H     5.685131    -5.218076     4.711759
O     5.162107    -5.129440     5.537435
H     4.440709    -5.761642     5.454827
H    -3.976938     1.162910     7.015979
O    -3.784109     1.641021     7.858505
H    -4.659817     2.028166     8.118300
H    -1.844301     9.608090    -0.759819
O    -2.704753     9.484081    -0.284797
H    -3.315444     10.111756    -0.674749
H    -5.947486     4.681446    -2.939195
O    -6.856198     4.562679    -3.283315
H    -6.766523     3.858021    -3.958197
H    -0.028275    -7.129006    -1.156226
O     0.642681    -7.504125    -0.543669
H     0.257221    -8.213813    -0.012088
H    -7.637581     3.787460    -1.971980
O    -7.899504     3.203094    -1.230098
H    -7.757546     2.293122    -1.566828
H     3.968597    -0.885185     7.000719
O     3.978831     0.078882     6.989056
H     4.791251     0.366732     6.556341
H     2.260815     5.783284    -1.183264
O     3.196178     5.489982    -1.068529
H     3.371882     4.947448    -1.860281
H     6.540499    -5.937522     0.698315
O     6.171168    -6.676612     1.227692
H     5.265644    -6.403509     1.458611
H    -3.867076     4.748336     7.779984
O    -3.300730     4.283107     7.122489
H    -3.495572     3.340222     7.235217
H     5.756675    -7.816039     0.099012
O     5.425891    -8.555357    -0.471885
H     4.679380    -8.193348    -0.989728
H    -0.559434     2.056842     7.700015
O    -1.192690     1.991170     6.965136
H    -2.061405     1.851412     7.361901
H    -6.387340    -0.118448     1.075021
O    -6.708239    -0.201994     0.162362
H    -7.626605    -0.473989     0.181174
H    -5.378997    -3.067619    -0.565724
O    -5.127239    -2.361763     0.056395
H    -5.696859    -1.589844    -0.135174
H     4.319696     5.566400     0.316793
O     4.654012     5.669027     1.221647
H     3.960211     6.181410     1.672670
H    -9.050612    -1.747865    -2.235402
O    -8.502571    -1.544467    -1.450037
H    -8.629958    -2.279673    -0.810448
H    -5.525442     3.455282    -5.524790
O    -6.043671     2.746615    -5.107857
H    -5.377817     2.161373    -4.692475
H     3.174711    -0.914380    -5.641312
O     2.318655    -1.034629    -6.106618
H     2.402457    -1.885275    -6.577308
H     8.108880    -1.383194    -6.013063
O     8.115809    -2.245999    -5.554210
H     7.258915    -2.645032    -5.804294
H     7.617196     0.957196    -6.300992
O     7.427533     0.107547    -6.711134
H     6.446091     0.058865    -6.747969
H    -7.869464    -3.687137     0.952288
O    -8.548101    -3.581801     0.267816
H    -8.449896    -4.343016    -0.331852
H    -2.401715     8.736608     1.281032
O    -2.251250     8.150161     2.035769
H    -1.481883     7.595456     1.814238
H    -4.440764     6.444017     3.491408
O    -4.610608     6.867892     2.633782
H    -3.846514     7.452511     2.492425
H     3.400185     3.425550    -3.575055
O     3.248030     4.395215    -3.484298
H     2.283140     4.460538    -3.591957
H    -6.122785    -1.614688    -3.424978
O    -6.205900    -2.191318    -2.639224
H    -6.989721    -1.882422    -2.131430
H     6.465321     1.048254     4.747821
O     6.072186     1.588718     5.449858
H     6.260088     2.506726     5.156300
H     1.358715     1.697910    -5.815407
O     1.164048     1.104666    -5.059170
H     1.525529     0.240087    -5.326716
H    -2.489642     2.989139     10.487956
O    -2.278333     2.080554     10.217258
H    -2.876320     1.879392     9.485486
H     7.622978    -0.505894     3.096490
O     6.873247     0.070585     3.263498
H     6.180323    -0.527715     3.644511
H    -5.649457    -8.069863    -0.668468
O    -4.913085    -8.130830    -0.024011
H    -4.932656    -7.314380     0.499243
H    -5.182878    -0.132374    -4.702362
O    -5.800583    -0.844122    -4.940462
H    -6.638464    -0.402314    -5.139266
H     1.884007    -0.228100    -7.502700
O     1.683269     0.241688    -8.347923
H     2.259108    -0.166397    -8.999955
H     4.865251    -1.431635    -9.288812
O     3.940375    -1.202359    -9.571350
H     3.919527    -1.323179    -10.520007
H     7.556347    -2.575660     4.218524
O     7.702684    -2.615206     3.259050
H     7.208262    -3.406098     2.989778
H     6.710108    -5.905497     2.712303
O     6.770399    -5.227654     3.410558
H     7.646191    -5.310309     3.829674
H    -1.814718     8.953128     3.484272
O    -1.566595     9.260115     4.381738
H    -2.415222     9.394772     4.836902
H    -7.393811     1.555040    -5.241996
O    -7.969322     0.812110    -4.994981
H    -8.870650     1.212659    -4.919938
H     6.919596    -1.121113    -8.389823
O     6.337129    -1.842512    -8.651343
H     6.108644    -2.289560    -7.818073
H    -1.674832     6.217177    -7.027539
O    -2.073499     5.393019    -6.751794
H    -1.825278     5.264555    -5.787774
H     0.000824     3.329958     9.026180
O     0.197030     2.410812     9.284220
H    -0.601798     2.149006     9.791177
H     6.747805    -2.801142    -2.685092
O     6.217843    -3.544671    -2.341005
H     6.684413    -4.355846    -2.589122
H    -4.086633    -3.088825    -4.921822
O    -4.240470    -2.978615    -5.887119
H    -4.787448    -2.185524    -5.945285
H     1.978600     2.199111     8.471184
O     2.642778     2.308574     7.780923
H     3.063656     1.437411     7.668024
H    -6.918439    -5.204573    -1.366759
O    -7.834860    -5.472566    -1.611171
H    -7.967924    -5.073036    -2.495353
H    -3.825469     5.270720     5.694907
O    -3.791779     6.037564     5.102093
H    -2.857448     6.330969     5.195246
H    -7.889863     0.084972    -1.953014
O    -7.399809     0.807159    -2.368790
H    -7.628005     0.793216    -3.321964
H     5.833119     0.117574     0.423490
O     5.612163     0.841088     1.042204
H     6.122135     0.648075     1.855689
H    -6.215518     3.333613     7.399887
O    -6.088274     2.817704     8.230075
H    -6.689286     2.056691     8.143838
H     2.092186    -8.102364    -1.242762
O     2.918959    -8.214729    -1.762991
H     2.696452    -8.886580    -2.426064
H    -2.755045    -3.982506    -6.172461
O    -2.001028    -4.547902    -5.939768
H    -1.725115    -4.255172    -5.042771
H    -5.643755     3.777249     5.311557
O    -6.292074     4.176526     5.927856
H    -6.127609     5.120358     5.911251
H    -1.037146    -7.127007    -3.134252
O    -0.565415    -6.463696    -2.598381
H     0.343745    -6.393728    -2.973718
H     4.442661     2.019243     5.135771
O     3.501376     2.259019     5.014816
H     3.116906     2.278799     5.896570
H     4.110597     4.663737     6.300280
O     4.193240     5.391618     5.679772
H     3.624773     5.149961     4.909805
H     2.764407     3.618897     3.924875
O     2.588725     4.558861     3.756340
H     2.468653     4.654844     2.789695
H     9.389306     0.190219    -1.059693
O     8.583172     0.354926    -0.566996
H     8.406508    -0.462041    -0.071266
H    -2.098372     5.348300     10.648461
O    -2.820964     4.721202     10.881851
H    -3.039267     4.901725     11.796392
H     7.964734    -3.024863     0.348516
O     8.387221    -2.178390     0.601084
H     8.321215    -2.170031     1.563359
H     5.370858     3.661764     3.526953
O     6.027490     3.927813     4.192602
H     5.615746     4.647855     4.692332
H    -4.207215     5.050061     9.783700
O    -4.840239     5.199812     9.061400
H    -5.452906     4.451828     9.060946
H    -7.020065    -3.486423    -3.461580
O    -7.641718    -4.097860    -3.908866
H    -7.121198    -4.543088    -4.609424
H     0.031231     6.154454     10.765967
O    -0.832988     6.486319     10.518060
H    -0.716972     6.913961     9.650321
H     2.585724     1.474903    -4.097452
O     3.464975     1.826609    -3.859963
H     3.783945     1.313887    -3.087508
H    -6.977040    -0.194653     7.233708
O    -7.484795     0.585204     7.511980
H    -8.107741     0.767248     6.807311
H    -2.721325    -9.773743    -0.787065
O    -2.658216    -8.826987    -0.942480
H    -3.584885    -8.506991    -0.731451
H    -10.070689     3.067928    -4.892613
O    -10.189023     2.151376    -4.609487
H    -10.404318     2.238102    -3.659904
H    -2.076887    -3.012619     4.637042
O    -2.951775    -3.452536     4.708812
H    -2.946387    -4.070780     3.951856
H    -0.860066    -7.659965     2.873276
O     0.002042    -7.728448     3.320502
H     0.459208    -8.370916     2.746300
H     6.700144    -2.371051     6.410658
O     7.147426    -3.083532     5.949129
H     6.515988    -3.817204     5.914671
H    -5.278815    -1.981890     6.962879
O    -5.954823    -1.484420     6.477875
H    -5.938738    -1.863904     5.569545
H     0.834124     3.005202    -7.110596
O     1.751459     2.673339    -7.166268
H     1.736357     1.923890    -7.789740
H    -3.948502     8.775478     6.660541
O    -3.946458     8.770608     5.703184
H    -4.072952     7.842456     5.438115
H    -2.052401     10.302730    -2.754320
O    -2.953949     10.484681    -3.056232
H    -2.881740     11.116081    -3.771350
H     9.401265    -4.068936     4.067772
O     9.118337    -4.745117     4.691030
H     8.691689    -4.269901     5.415014
H    -0.749086    -6.018486    -5.810655
O    -0.045962    -6.585296    -5.476930
H     0.789522    -6.125056    -5.696191
H     1.830936     8.269006     0.652816
O     1.527953     8.588816    -0.225556
H     2.342493     8.624058    -0.756401
H     3.496176     2.899971    -6.658738
O     4.323568     2.609992    -6.248775
H     4.078055     2.339479    -5.339012
H     3.736953     7.110682    -1.238494
O     3.944214     8.045474    -1.454697
H     4.312888     7.986237    -2.348029
H     4.389081    -0.041710    -7.899563
O     4.767231     0.106758    -7.030966
H     4.586160     1.039512    -6.789900
H     6.027844     1.918432    -0.469326
O     6.593455     2.108220    -1.231719
H     7.417507     1.628459    -1.036226
H     6.661671    -8.463515    -1.560072
O     7.297439    -8.252102    -2.291724
H     7.662426    -9.084799    -2.586673
H    -5.314769    -5.803677    -5.376254
O    -5.930762    -5.131867    -5.693727
H    -5.378429    -4.365130    -5.932391
H     0.687717     7.189483     7.592774
O    -0.213678     7.219296     7.952429
H    -0.769387     7.232125     7.135017
H    -8.906497    -2.840961    -4.078840
O    -9.426190    -2.031245    -3.914370
H    -9.138996    -1.368912    -4.546644
H    -2.427311    -5.999025    -2.107366
O    -3.301158    -5.706826    -2.383606
H    -3.488963    -6.088350    -3.265978
H    -2.999002    -5.918964    -5.379144
O    -3.600179    -6.526143    -4.905514
H    -3.120207    -7.346585    -4.734916
H    -1.392074     3.702413    -6.980703
O    -0.852309     2.946948    -6.708012
H    -1.090746     2.160341    -7.255197
H    -0.210420     0.387952    -8.204429
O    -1.105941     0.625432    -7.921367
H    -1.281823     0.104266    -7.121956
H    -10.423420     4.052242    -2.731446
O    -10.491972     3.275532    -2.160797
H    -9.662319     3.249178    -1.652351
H     4.580431     4.073956     1.720823
O     4.371870     3.153909     2.002402
H     5.086801     2.576658     1.721659
H     6.481986     1.371582    -4.211874
O     6.179123     0.749674    -3.515731
H     6.209868     1.248171    -2.673701
H     9.625242    -2.246622    -0.911754
O     9.901484    -2.037069    -1.812764
H     9.101866    -1.697137    -2.256731
H     9.959758    -3.349133    -3.077571
O     9.690929    -4.003416    -3.749769
H     9.298527    -3.497587    -4.472091
H    -7.711747    -8.578131    -1.625692
O    -6.972645    -7.985039    -1.752243
H    -7.349562    -7.072201    -1.746061
H     4.162413     6.059010    -3.826635
O     4.824505     6.759605    -3.744001
H     5.660143     6.305011    -3.605278
H     0.081033    -8.192378    -5.179136
O     0.102974    -9.173906    -5.038470
H     0.258094    -9.546385    -5.906474
H    -2.339906    -8.681021    -2.669540
O    -2.119383    -8.428042    -3.585106
H    -1.472033    -9.045677    -3.944238
H     2.346980    -10.841697    -4.058722
O     2.136110    -9.982963    -3.686443
H     1.312545    -9.686093    -4.147413
H     6.834032     3.302823    -4.572835
O     6.891248     2.622223    -5.271459
H     6.097906     2.754799    -5.812543
H    -3.573794    -3.701068     7.744479
O    -3.685718    -2.913928     7.212986
H    -3.435449    -3.155888     6.294781
H    -0.648444    -3.386614    -6.701289
O    -0.017131    -2.656013    -6.711591
H    -0.497939    -1.878948    -6.372213
H     0.638826     0.480822     8.763551
O     0.645558    -0.236464     8.125738
H    -0.277211    -0.524089     8.038788
H    -5.831513     7.357381    -4.259106
O    -6.335235     6.737566    -4.818320
H    -6.622785     6.008479    -4.225043
H    -4.273566     9.093833    -3.276400
O    -4.810204     8.298670    -3.167683
H    -4.402170     7.820705    -2.427557
H    -9.710753     5.790011    -4.648405
O    -10.244975     4.986462    -4.482259
H    -11.125427     5.187226    -4.801547
H     2.773039     6.524912     6.133118
O     1.813141     6.622873     6.231130
H     1.468280     5.709694     6.131434
H     4.809120     8.536080     0.070823
O     5.127174     8.539362     0.991536
H     5.532644     7.674770     1.124969
H     4.126169    -7.451402    -4.310547
O     3.368594    -7.734123    -4.853848
H     3.089464    -8.576894    -4.484547
H     0.383313     8.666383     4.221405
O     1.060601     8.020627     3.995182
H     1.286423     7.529744     4.811197
H     5.234804     4.170335    -3.158384
O     6.196251     4.138988    -3.105841
H     6.404469     3.559907    -2.356026
H    -2.582936    -1.524412     7.590723
O    -2.071583    -0.731321     7.809283
H    -2.697035    -0.103105     8.180771
H    -9.024540     7.930458    -4.155045
O    -8.962123     7.343850    -4.910324
H    -8.005238     7.178122    -5.044990
H     4.170961    -9.021548     0.842996
O     3.513887    -8.875466     1.551296
H     3.642560    -7.937616     1.791629
H     3.589695     8.167691     1.817581
O     2.798809     7.605155     1.931692
H     2.352706     7.843978     2.757007
N     0.966351    -9.467466     1.317060
H     0.862662    -10.410053     1.464146
H     1.954711    -9.298012     1.315415
