603

H     0.193644     3.019860    -0.691867
O     0.717787     2.350863    -1.183271
H     1.656238     2.481704    -0.910170
H    -0.074068    -1.308153     3.150279
O     0.317672    -0.609390     2.603949
H    -0.161060     0.204416     2.834432
H    -2.404471     2.397657    -0.544975
O    -2.190931     1.927550     0.279223
H    -2.211143     0.979687     0.054400
H    -4.662796     0.539116     2.179981
O    -4.976562    -0.395406     2.198751
H    -4.476448    -0.872944     1.528800
H     0.063713    -0.315946     0.948037
O    -0.131314    -0.083997     0.019575
H     0.201036     0.815052    -0.102337
H    -0.148697    -3.577391     3.783607
O    -0.428158    -2.746469     4.201889
H     0.218214    -2.572928     4.902710
H    -4.889824     2.519927     1.325524
O    -4.248099     2.112171     1.939525
H    -3.407331     2.093878     1.423481
H    -3.256823     3.878170    -2.221350
O    -2.514073     3.288109    -1.989450
H    -2.172253     2.981126    -2.850315
H    -0.123735    -3.813105     0.508453
O     0.216412    -2.994545     0.923757
H    -0.570858    -2.507222     1.234918
H    -2.376631    -1.543538     2.468936
O    -2.187015    -2.011525     1.629236
H    -2.447689    -1.427323     0.897842
H     2.071574    -1.453668    -1.122911
O     2.304621    -1.705595    -0.205609
H     1.515262    -2.131050     0.180342
H    -1.395939     1.817394     1.903014
O    -1.482191     1.422308     2.780926
H    -1.469288     2.136938     3.443373
H     0.205822    -2.716197    -1.568197
O    -0.549821    -2.105155    -1.627121
H    -0.372153    -1.377314    -0.994109
H    -3.437567    -2.939971    -0.388252
O    -2.720097    -3.431498    -0.809990
H    -2.011703    -2.798850    -1.027992
H     2.772514     0.128860     2.926753
O     2.873447    -0.051336     3.888711
H     2.963577     0.842756     4.291077
H    -3.537410     6.365651    -0.562686
O    -3.299393     7.028177    -1.263120
H    -3.159348     7.873743    -0.793610
H     3.900210     0.580674     1.176495
O     2.950150     0.397814     1.294130
H     2.712838    -0.355864     0.716577
H    -5.788100     0.821492    -1.599032
O    -4.879606     1.145928    -1.455252
H    -4.994657     1.979191    -0.954568
H    -1.217386     5.391743     2.193144
O    -1.841153     4.643389     2.079002
H    -1.918625     4.227227     2.942687
H     3.488449     2.757945     0.410973
O     3.240482     2.712575    -0.528012
H     3.573087     1.869128    -0.876160
H     1.492172    -4.711269    -2.245064
O     1.555385    -3.932292    -1.674317
H     2.349550    -3.471042    -2.025986
H    -0.934226    -0.096960    -2.550980
O    -0.288763     0.544857    -2.874478
H    -0.033695     1.136145    -2.142644
H     1.700983    -4.693916    -0.173550
O     1.810050    -5.329631     0.569891
H     1.346651    -6.141658     0.276685
H    -1.230679    -3.281121    -2.880267
O    -1.056653    -3.967083    -3.538967
H    -0.927811    -4.811909    -3.066253
H    -2.781953     3.308110     4.693672
O    -1.800629     3.306652     4.659283
H    -1.506927     2.907072     5.496192
H     0.958432     5.035903     4.057834
O     0.012323     5.267674     4.110707
H    -0.459116     4.464653     4.370111
H    -1.729431    -4.661500    -0.363699
O    -0.963787    -5.202406    -0.079456
H    -1.309989    -5.886361     0.503013
H    -3.925835     5.812630    -2.619207
O    -4.278584     4.976440    -2.940580
H    -4.129519     4.933272    -3.909509
H    -2.427689    -3.695524     1.942846
O    -2.444383    -4.599320     2.319967
H    -1.504415    -4.835549     2.461545
H    -4.772277    -2.998427    -2.826466
O    -3.922590    -3.251995    -3.242184
H    -3.598330    -4.040008    -2.760700
H     0.339664     1.379330     4.606104
O     0.845984     2.138459     4.270649
H     0.893320     2.799808     4.975362
H    -4.653313    -5.188093    -1.557378
O    -5.356007    -4.835947    -0.984460
H    -5.141176    -5.185910    -0.099095
H     2.327674    -6.500587    -4.029859
O     1.989713    -6.169670    -3.177532
H     2.425271    -6.740521    -2.512337
H     0.457994    -3.394274    -4.006687
O     1.267522    -3.035576    -4.424682
H     0.964336    -2.658521    -5.272324
H     1.965850    -1.753498     2.979920
O     2.122010    -2.684744     2.764474
H     1.435470    -2.900371     2.098855
H    -3.027977    -1.849645    -3.103676
O    -2.590628    -0.964436    -3.129281
H    -3.275239    -0.335002    -3.434547
H    -3.196254     4.966023     1.064768
O    -3.977774     5.339084     0.610008
H    -4.393817     5.897103     1.315079
H     0.873284     2.251138     2.579691
O     0.973837     2.244243     1.608484
H     1.701058     1.621219     1.445294
H     0.180618     5.644717    -0.778337
O     0.702319     6.306124    -1.288255
H     0.842487     7.107407    -0.734479
H     0.336431     7.033240     2.567981
O    -0.026028     6.650682     1.751799
H     0.637855     5.979597     1.491399
H    -2.479893     0.211358     3.337889
O    -2.699609    -0.601841     3.845179
H    -1.938524    -0.638356     4.466247
H    -0.891056     0.558750     6.020075
O    -0.617192     0.037333     5.246897
H     0.097001    -0.564682     5.534517
H     0.714467    -4.998137     1.987481
O     0.173083    -5.106657     2.792583
H     0.319063    -6.026305     3.067063
H    -2.113652    -8.098624     0.465668
O    -1.790144    -7.609129     1.249260
H    -2.575752    -7.296609     1.705704
H    -0.391776     6.847333    -2.347359
O    -1.138716     7.265992    -2.846542
H    -1.928342     7.139665    -2.282048
H    -1.120008     4.300294     0.558070
O    -0.746648     4.359626    -0.337809
H    -1.453258     4.115096    -0.970257
H    -4.411004     2.742490     3.499489
O    -4.408726     2.915188     4.463882
H    -4.490973     2.033034     4.874974
H     2.029037    -3.579477     4.246462
O     1.967438    -4.050395     5.100589
H     2.473468    -3.511052     5.729798
H     4.688982    -3.198582     0.837684
O     4.527544    -3.125754    -0.128924
H     3.668074    -2.649163    -0.212379
H    -2.730872    -0.757648    -1.366807
O    -3.048986    -0.494142    -0.487611
H    -3.852388     0.032619    -0.687719
H    -1.536359    -0.877371    -4.641786
O    -0.867920    -0.730887    -5.341858
H    -0.237921    -0.113275    -4.939993
H     1.790437    -1.732158    -3.377130
O     1.885510    -0.983049    -2.757965
H     1.104071    -0.409160    -2.881052
H     3.665794    -3.122205     2.549983
O     4.624941    -3.350871     2.476115
H     4.680626    -4.310488     2.605986
H     3.432352    -6.120612     3.130596
O     3.786777    -5.922364     2.229211
H     3.048629    -5.577777     1.686632
H    -3.401069     1.530546    -4.124167
O    -4.257537     1.076921    -3.914807
H    -4.435901     1.234509    -2.950485
H    -5.091626     4.135713     0.056615
O    -5.531974     3.269635    -0.034461
H    -6.460065     3.385271    -0.325920
H     6.731571    -1.190184    -1.370586
O     5.959471    -1.040006    -0.818800
H     5.541234    -1.907488    -0.618625
H     4.591190    -3.180349    -2.471625
O     3.723166    -3.011377    -2.888146
H     3.726980    -3.632971    -3.641853
H     4.439995    -2.285597     5.618188
O     4.098759    -2.749613     6.412945
H     4.434272    -3.654553     6.332958
H    -0.757518     6.340297     5.055327
O    -1.353852     6.917093     5.592812
H    -1.369051     7.792838     5.148742
H     4.695029    -0.146358    -1.474483
O     3.927165     0.394896    -1.737867
H     3.234669    -0.206536    -2.065970
H    -0.754681     4.502356    -4.051368
O    -1.535306     5.045588    -4.266011
H    -1.387195     5.912182    -3.842519
H     0.649007     3.189134    -2.671161
O     0.656790     3.562471    -3.581057
H     0.700762     2.796466    -4.163245
H    -5.379492    -5.203628     1.807692
O    -4.682605    -5.799763     1.454480
H    -3.842492    -5.381422     1.722422
H     7.876126    -1.703653    -4.042342
O     7.618793    -1.388720    -3.143344
H     7.130855    -0.545565    -3.301150
H     3.697847    -5.093629    -5.286275
O     4.460006    -4.717533    -4.807086
H     4.846024    -5.426274    -4.259267
H    -3.782093     0.017530     4.933581
O    -4.381712     0.482429     5.566690
H    -5.041602    -0.175142     5.860207
H     3.466423    -5.950561    -0.511972
O     4.337816    -5.703489    -0.833566
H     4.414057    -4.740875    -0.691262
H     4.991576    -0.351848    -4.171489
O     4.456085    -1.064680    -4.558771
H     4.132868    -1.646511    -3.838247
H    -1.169788     1.541593    -3.889829
O    -1.857876     2.126980    -4.268734
H    -1.498816     2.540310    -5.081937
H     4.884699    -6.333845    -2.309576
O     5.216812    -6.660858    -3.174820
H     6.035510    -7.140461    -2.987689
H     8.738672    -5.102283    -2.919700
O     8.047961    -5.519181    -2.360015
H     8.083627    -6.476764    -2.459258
H     2.330734     4.713007     0.432087
O     1.753489     4.696374     1.204747
H     1.395932     3.776299     1.284583
H    -4.411765    -2.637090     4.238217
O    -5.306265    -2.299063     4.036180
H    -5.170571    -1.519462     3.457977
H    -5.844819    -3.207918     1.326216
O    -6.305020    -3.764458     1.997314
H    -6.116961    -3.325500     2.846115
H     1.687481     3.478004     6.847092
O     1.063534     3.991562     6.312554
H     0.280987     4.145493     6.884512
H     5.003369    -2.165429     3.611414
O     5.024144    -1.445600     4.273713
H     4.211531    -0.890253     4.116673
H     2.398121    -5.571990     4.845197
O     2.778353    -6.456424     4.586991
H     2.033375    -7.038843     4.415727
H     2.245663    -4.542171    -6.786465
O     2.082565    -5.030444    -5.969389
H     1.818783    -4.339365    -5.313992
H     6.439306    -4.109302    -0.504385
O     7.193538    -4.510581    -0.041275
H     7.700404    -4.934571    -0.761574
H    -1.723899     4.498317     7.686823
O    -0.824704     4.598529     8.071050
H    -0.644835     5.557968     8.092337
H    -5.136415     5.658719    -5.610845
O    -4.525304     4.898390    -5.629218
H    -3.770080     5.115239    -6.195876
H     3.272556    -2.557135    -8.438684
O     3.186407    -3.086111    -7.634945
H     4.063782    -3.060896    -7.207446
H    -0.675189     8.809889    -2.305652
O    -0.551303     9.640593    -1.790274
H     0.211289     9.468173    -1.213427
H     2.069414    -0.906975     5.206926
O     1.498610    -1.432668     5.796480
H     1.592288    -1.084243     6.692526
H     5.197573    -2.044537    -5.698183
O     5.543602    -2.811857    -6.218991
H     5.271996    -3.600770    -5.698616
H     5.701563    -5.208101     4.688356
O     5.180462    -5.121628     5.515546
H     4.459211    -5.754249     5.432520
H    -3.970682     1.151066     7.003883
O    -3.778091     1.629110     7.846411
H    -4.654245     2.014759     8.107049
H    -1.864306     9.601875    -0.773677
O    -2.723465     9.477092    -0.296693
H    -3.336615     10.101751    -0.687644
H    -5.960583     4.664599    -2.950459
O    -6.868000     4.544772    -3.296878
H    -6.773570     3.836438    -3.969232
H     0.095059    -7.076330    -1.129224
O     0.560798    -7.511311    -0.382260
H    -0.116759    -7.704244     0.268936
H    -7.644562     3.769765    -1.984193
O    -7.905268     3.186605    -1.240584
H    -7.762048     2.276288    -1.577194
H     3.978399    -0.880767     6.979536
O     3.986401     0.083355     6.968301
H     4.797682     0.372943     6.534587
H     2.247512     5.785474    -1.201675
O     3.183919     5.494363    -1.088483
H     3.359485     4.952122    -1.880432
H     6.552834    -5.932562     0.675444
O     6.185373    -6.668144     1.210955
H     5.281118    -6.390987     1.438927
H    -3.867588     4.736710     7.768024
O    -3.300885     4.272550     7.110115
H    -3.493908     3.329324     7.222715
H     5.766160    -7.950549     0.147529
O     5.478282    -8.639574    -0.488040
H     4.648301    -8.315749    -0.881908
H    -0.554454     2.051861     7.684064
O    -1.188373     1.984556     6.949885
H    -2.056397     1.843486     7.347665
H    -6.388637    -0.134187     1.069248
O    -6.706931    -0.226342     0.156957
H    -7.626825    -0.492713     0.173426
H    -5.374541    -3.076578    -0.581642
O    -5.121148    -2.377065     0.046309
H    -5.690050    -1.602717    -0.141288
H     4.308415     5.572869     0.295745
O     4.643945     5.676257     1.200080
H     3.949511     6.186848     1.652175
H    -9.048772    -1.768354    -2.242572
O    -8.501680    -1.565490    -1.456417
H    -8.628134    -2.300408    -0.817349
H    -5.557669     3.475671    -5.532040
O    -6.080464     2.773856    -5.106390
H    -5.418890     2.224444    -4.638366
H     3.167992    -0.911780    -5.662028
O     2.312026    -1.036546    -6.127420
H     2.403802    -1.885595    -6.600626
H     8.104932    -1.368474    -6.039855
O     8.114629    -2.231347    -5.581382
H     7.258530    -2.632844    -5.829421
H     7.608716     0.970297    -6.326062
O     7.419627     0.121183    -6.737674
H     6.438371     0.070107    -6.771328
H    -7.858981    -3.708008     0.945619
O    -8.539900    -3.605114     0.263159
H    -8.440587    -4.364898    -0.337535
H    -2.418052     8.728687     1.267796
O    -2.265023     8.142839     2.022498
H    -1.495284     7.589282     1.799444
H    -4.449467     6.431827     3.480270
O    -4.621376     6.855980     2.623287
H    -3.858355     7.441652     2.480686
H     3.390603     3.430664    -3.594174
O     3.235404     4.400225    -3.504896
H     2.270046     4.462351    -3.610349
H    -6.124679    -1.626975    -3.426682
O    -6.202555    -2.214101    -2.645633
H    -6.983224    -1.904926    -2.134151
H     6.468565     1.058644     4.724470
O     6.075223     1.598727     5.426738
H     6.261123     2.516947     5.132698
H     1.355280     1.705882    -5.828738
O     1.178093     1.111844    -5.069534
H     1.536298     0.249308    -5.346356
H    -2.483594     2.980026     10.474261
O    -2.270927     2.071800     10.203408
H    -2.869109     1.869626     9.472081
H     7.627477    -0.493264     3.071575
O     6.877218     0.082403     3.239257
H     6.185708    -0.517097     3.621444
H    -5.656926    -8.070107    -0.677833
O    -4.920729    -8.136557    -0.032589
H    -4.924751    -7.318170     0.487870
H    -5.330382    -0.203358    -4.771377
O    -5.989124    -0.906624    -4.919376
H    -6.826065    -0.425046    -5.058221
H     1.879764    -0.226661    -7.521124
O     1.667932     0.238113    -8.367081
H     2.248921    -0.163017    -9.018914
H     4.857557    -1.422456    -9.310128
O     3.932144    -1.194484    -9.592977
H     3.911977    -1.317473    -10.541346
H     7.567049    -2.562568     4.193344
O     7.713030    -2.601485     3.233825
H     7.219741    -3.393349     2.964864
H     6.725382    -5.891996     2.688236
O     6.787078    -5.214642     3.387177
H     7.663472    -5.297463     3.804464
H    -1.828723     8.946241     3.470167
O    -1.580353     9.253679     4.367495
H    -2.428839     9.386539     4.823418
H    -7.400705     1.530542    -5.246572
O    -7.984843     0.792799    -5.000592
H    -8.882541     1.199193    -4.922812
H     6.912587    -1.109447    -8.414751
O     6.329969    -1.831060    -8.675502
H     6.104748    -2.279452    -7.842003
H    -1.695531     6.208559    -7.043159
O    -2.086471     5.379428    -6.771191
H    -1.841390     5.253957    -5.805622
H     0.004262     3.326213     9.009713
O     0.202653     2.407460     9.267537
H    -0.595035     2.143934     9.775354
H     6.751614    -2.790903    -2.709529
O     6.221855    -3.534910    -2.366891
H     6.691525    -4.345832    -2.610736
H    -4.200865    -3.109905    -4.898475
O    -4.338433    -2.942657    -5.863177
H    -5.063472    -2.290630    -5.864055
H     1.983724     2.199402     8.452571
O     2.646914     2.310433     7.761632
H     3.069501     1.440163     7.648029
H    -6.909002    -5.220590    -1.377035
O    -7.823816    -5.493675    -1.621845
H    -7.959770    -5.091050    -2.504281
H    -3.829374     5.259289     5.683022
O    -3.798014     6.026484     5.090615
H    -2.864154     6.321725     5.182418
H    -7.891744     0.065456    -1.963201
O    -7.406645     0.793390    -2.373692
H    -7.625531     0.778296    -3.329067
H     5.833927     0.126776     0.400660
O     5.612306     0.850112     1.019383
H     6.123255     0.657780     1.832523
H    -6.212995     3.317291     7.390703
O    -6.083950     2.801374     8.220678
H    -6.683640     2.039295     8.134937
H     2.280761    -8.083339    -0.826877
O     2.955877    -8.071705    -1.524967
H     2.731099    -8.788356    -2.135032
H    -2.735727    -4.018322    -6.150166
O    -1.977148    -4.567439    -5.899759
H    -1.714702    -4.264864    -4.997745
H    -5.644947     3.762283     5.301383
O    -6.292827     4.159932     5.919229
H    -6.131223     5.104241     5.901509
H    -1.019435    -7.133114    -3.147002
O    -0.548163    -6.459186    -2.623387
H     0.360118    -6.391934    -3.002891
H     4.444531     2.025252     5.114444
O     3.502625     2.263291     4.994552
H     3.119067     2.281991     5.876706
H     4.108118     4.669078     6.279420
O     4.188456     5.397303     5.659009
H     3.619745     5.154458     4.889555
H     2.761599     3.621608     3.905491
O     2.583779     4.561223     3.737256
H     2.462299     4.656971     2.770716
H     9.388537     0.206579    -1.086327
O     8.582340     0.369934    -0.593274
H     8.407871    -0.447252    -0.096981
H    -2.097015     5.340114     10.634509
O    -2.817914     4.711373     10.868805
H    -3.035557     4.891492     11.783578
H     7.971850    -3.011277     0.322547
O     8.392849    -2.163661     0.574553
H     8.327919    -2.155717     1.536929
H     5.367396     3.670182     3.504734
O     6.024349     3.937956     4.169379
H     5.611392     4.656765     4.669869
H    -4.206022     5.037495     9.772212
O    -4.840281     5.186127     9.050772
H    -5.451294     4.436804     9.050770
H    -7.017918    -3.497703    -3.470100
O    -7.636077    -4.115124    -3.916592
H    -7.116882    -4.557779    -4.617681
H     0.030747     6.150689     10.749643
O    -0.834412     6.480971     10.502899
H    -0.720325     6.908706     9.634920
H     2.583937     1.482834    -4.114575
O     3.464472     1.833610    -3.877672
H     3.782424     1.320469    -3.105201
H    -6.967822    -0.212639     7.224836
O    -7.476912     0.565950     7.504080
H    -8.100647     0.747462     6.799962
H    -2.739892    -9.886452    -0.803706
O    -2.678174    -8.945453    -0.967892
H    -3.583911    -8.578830    -0.725538
H    -10.081601     3.047832    -4.894812
O    -10.203514     2.131466    -4.612654
H    -10.413195     2.217214    -3.661803
H    -2.063908    -3.021824     4.620894
O    -2.937850    -3.463319     4.693421
H    -2.932820    -4.082397     3.938295
H    -0.172591    -7.984749     2.504155
O     0.654408    -7.772624     2.950091
H     1.372018    -8.069463     2.362981
H     6.711711    -2.360991     6.386685
O     7.160956    -3.072070     5.924928
H     6.531245    -3.807279     5.889717
H    -5.266355    -1.996549     6.951846
O    -5.943982    -1.500693     6.467551
H    -5.928164    -1.879730     5.559120
H     0.823960     3.006791    -7.128119
O     1.740564     2.674651    -7.188214
H     1.724240     1.923214    -7.808927
H    -3.958818     8.763505     6.649151
O    -3.957696     8.759219     5.691793
H    -4.082565     7.830980     5.426243
H    -2.075857     10.295820    -2.767834
O    -2.978072     10.476932    -3.068265
H    -2.907726     11.107360    -3.784410
H     9.414549    -4.051232     4.040469
O     9.136263    -4.727978     4.665205
H     8.707102    -4.254035     5.388537
H    -0.741712    -6.022012    -5.827472
O    -0.037135    -6.586360    -5.494913
H     0.798510    -6.124499    -5.713838
H     1.814457     8.269990     0.634740
O     1.510095     8.589677    -0.243134
H     2.323898     8.626340    -0.774916
H     3.485028     2.906594    -6.677343
O     4.312806     2.615043    -6.269717
H     4.069948     2.345839    -5.358494
H     3.720802     7.115961    -1.258938
O     3.926459     8.051118    -1.475315
H     4.293894     7.992665    -2.369176
H     4.382248    -0.033256    -7.922449
O     4.757333     0.113681    -7.052410
H     4.577495     1.046727    -6.810681
H     6.023907     1.928176    -0.492922
O     6.588206     2.118769    -1.256129
H     7.413451     1.640782    -1.061196
H     6.684708    -8.439500    -1.595592
O     7.319219    -8.230659    -2.333985
H     7.686792    -9.065449    -2.619136
H    -5.302370    -5.816476    -5.390258
O    -5.917696    -5.145577    -5.711038
H    -5.370050    -4.377040    -5.948674
H     0.681466     7.187334     7.576014
O    -0.219597     7.215270     7.936683
H    -0.776138     7.227037     7.119755
H    -8.904267    -2.857662    -4.087339
O    -9.428907    -2.052122    -3.921088
H    -9.140733    -1.384149    -4.547165
H    -2.410493    -6.006146    -2.124879
O    -3.288693    -5.720646    -2.394011
H    -3.479181    -6.101219    -3.275501
H    -2.991344    -5.932796    -5.388282
O    -3.593845    -6.540454    -4.918311
H    -3.111320    -7.358772    -4.742762
H    -1.354647     3.784851    -7.005729
O    -0.862451     3.007968    -6.689435
H    -1.085169     2.225760    -7.247627
H    -0.125713     0.382151    -8.160261
O    -1.021868     0.579887    -7.831884
H    -1.081084     0.129113    -6.963757
H    -10.433344     4.029796    -2.735580
O    -10.500676     3.254721    -2.162571
H    -9.667871     3.228104    -1.659002
H     4.574263     4.080770     1.699371
O     4.367835     3.160306     1.981070
H     5.083693     2.584460     1.699761
H     6.475085     1.382572    -4.235460
O     6.173737     0.759394    -3.539950
H     6.204433     1.257295    -2.697461
H     9.629572    -2.229912    -0.938966
O     9.904735    -2.018447    -1.839912
H     9.103660    -1.680915    -2.282950
H     9.964011    -3.330822    -3.105248
O     9.696838    -3.984795    -3.778333
H     9.301923    -3.479311    -4.499392
H    -7.697402    -8.593756    -1.634352
O    -6.960134    -7.999976    -1.768668
H    -7.338075    -7.086710    -1.759932
H     4.145793     6.065272    -3.846929
O     4.806748     6.767260    -3.766624
H     5.643292     6.314511    -3.627337
H     0.094228    -8.194256    -5.196272
O     0.117788    -9.176320    -5.062070
H     0.269112    -9.542702    -5.933397
H    -2.334600    -8.690775    -2.692293
O    -2.101473    -8.429882    -3.603163
H    -1.455238    -9.049682    -3.960191
H     2.184143    -10.833450    -3.470787
O     2.137490    -9.878843    -3.450452
H     1.350603    -9.610628    -3.975404
H     6.823220     3.314269    -4.596001
O     6.881342     2.634557    -5.295536
H     6.086872     2.765765    -5.835199
H    -3.555434    -3.712101     7.732030
O    -3.671017    -2.925742     7.200133
H    -3.421017    -3.166906     6.282046
H    -0.468877    -3.487760    -6.744491
O     0.155036    -2.756197    -6.856396
H    -0.298740    -2.002707    -6.437806
H     0.648109     0.478414     8.746181
O     0.655552    -0.238807     8.108303
H    -0.266694    -0.528253     8.022330
H    -5.853400     7.340285    -4.267894
O    -6.356681     6.721159    -4.827882
H    -6.639159     5.987511    -4.236853
H    -4.295023     9.082604    -3.286779
O    -4.830415     8.286670    -3.178139
H    -4.420680     7.808182    -2.439280
H    -9.725996     5.768792    -4.653812
O    -10.259696     4.965247    -4.485800
H    -11.140138     5.164052    -4.806186
H     2.766492     6.527318     6.113950
O     1.806520     6.623301     6.213278
H     1.463396     5.709493     6.113510
H     4.791591     8.543426     0.049487
O     5.111149     8.547569     0.969671
H     5.517853     7.683506     1.102833
H     4.139354    -7.443122    -4.331221
O     3.380650    -7.730296    -4.871549
H     3.102181    -8.570519    -4.492439
H     0.370093     8.663908     4.204794
O     1.049000     8.020005     3.978106
H     1.276310     7.529284     4.793770
H     5.223331     4.178914    -3.180149
O     6.184927     4.148974    -3.129282
H     6.395099     3.570439    -2.379543
H    -2.570998    -1.533283     7.576922
O    -2.060886    -0.739294     7.794687
H    -2.686927    -0.112097     8.166946
H    -9.044594     7.908526    -4.160818
O    -8.981903     7.324661    -4.918190
H    -8.024646     7.157935    -5.051501
H     3.535752    -8.982332     1.107879
O     2.858250    -8.350365     1.353896
H     3.331931    -7.543858     1.632328
H     3.574893     8.172565     1.797873
O     2.785608     7.608036     1.912700
H     2.339536     7.845839     2.738328
N    -3.694566    -0.167508    -6.868640
H    -3.560744    -1.118333    -6.765042
H    -3.191965     0.062964    -7.656744
