603

H     0.196126     3.035552    -0.673529
O     0.719255     2.366981    -1.165706
H     1.658198     2.496920    -0.892951
H    -0.076910    -1.304372     3.155284
O     0.314253    -0.603192     2.611479
H    -0.164399     0.209480     2.845025
H    -2.403173     2.412063    -0.532184
O    -2.193311     1.942316     0.292657
H    -2.207365     0.994310     0.067506
H    -4.664929     0.546088     2.185859
O    -4.981176    -0.387285     2.199232
H    -4.477308    -0.864580     1.531805
H     0.062267    -0.304925     0.956132
O    -0.136718    -0.067742     0.029760
H     0.203572     0.828443    -0.091608
H    -0.153763    -3.574218     3.781700
O    -0.433206    -2.744437     4.202561
H     0.212830    -2.574096     4.904488
H    -4.891990     2.527493     1.334136
O    -4.250576     2.122561     1.950057
H    -3.408665     2.103163     1.435529
H    -3.253216     3.900966    -2.208554
O    -2.516308     3.303402    -1.975609
H    -2.156798     3.015776    -2.835016
H    -0.123727    -3.801489     0.507291
O     0.215291    -2.983681     0.925358
H    -0.572649    -2.498088     1.236875
H    -2.379375    -1.537618     2.473319
O    -2.189539    -2.003065     1.632498
H    -2.448205    -1.416249     0.902778
H     2.072024    -1.437756    -1.116713
O     2.303616    -1.690147    -0.199064
H     1.514936    -2.119144     0.184273
H    -1.394292     1.825875     1.915769
O    -1.487695     1.429077     2.792031
H    -1.471259     2.140897     3.457128
H     0.208886    -2.699144    -1.566202
O    -0.547367    -2.088224    -1.620360
H    -0.368606    -1.361739    -0.986503
H    -3.436596    -2.924732    -0.387979
O    -2.718474    -3.416226    -0.807909
H    -2.009049    -2.784891    -1.026636
H     2.769700     0.134137     2.938164
O     2.868389    -0.048255     3.899999
H     2.959567     0.844527     4.304703
H    -3.477446     6.409627    -0.528809
O    -3.307349     7.059461    -1.255942
H    -3.201056     7.939281    -0.853575
H     3.898380     0.590614     1.190835
O     2.947927     0.408103     1.306870
H     2.711559    -0.344344     0.727072
H    -5.784527     0.840712    -1.602501
O    -4.874525     1.168702    -1.474480
H    -4.987521     1.996246    -0.961964
H    -1.214327     5.397500     2.216573
O    -1.846116     4.655747     2.101911
H    -1.916206     4.230378     2.961876
H     3.488651     2.769114     0.430547
O     3.240008     2.726418    -0.508364
H     3.573820     1.884661    -0.859772
H     1.493205    -4.691569    -2.247216
O     1.557041    -3.914394    -1.673868
H     2.351297    -3.452529    -2.024909
H    -0.924282    -0.081825    -2.544333
O    -0.290383     0.571144    -2.867949
H    -0.030799     1.153690    -2.131002
H     1.701042    -4.680585    -0.175872
O     1.808287    -5.317541     0.566828
H     1.345846    -6.129176     0.270518
H    -1.226050    -3.262678    -2.876566
O    -1.051696    -3.945799    -3.537330
H    -0.924598    -4.792712    -3.068518
H    -2.788321     3.306516     4.710382
O    -1.807230     3.309151     4.675890
H    -1.512018     2.905503     5.510526
H     0.952343     5.040586     4.081170
O     0.005664     5.270766     4.135331
H    -0.462570     4.465774     4.393885
H    -1.728628    -4.648719    -0.368378
O    -0.962984    -5.188640    -0.083204
H    -1.310007    -5.876298     0.494434
H    -3.926302     5.834687    -2.596196
O    -4.274837     4.998206    -2.922850
H    -4.121942     4.963411    -3.891524
H    -2.430013    -3.688579     1.939147
O    -2.447677    -4.592564     2.315414
H    -1.507669    -4.830068     2.455526
H    -4.695278    -2.979777    -2.895701
O    -3.842600    -3.211703    -3.301840
H    -3.511008    -4.005238    -2.836903
H     0.335382     1.379430     4.619960
O     0.837503     2.141878     4.285541
H     0.889203     2.798988     4.993866
H    -4.653027    -5.170247    -1.568313
O    -5.355029    -4.817469    -0.994350
H    -5.141659    -5.172221    -0.110416
H     2.329889    -6.475163    -4.036770
O     1.992557    -6.146975    -3.183133
H     2.427523    -6.720599    -2.520077
H     0.467386    -3.374183    -4.002240
O     1.269803    -3.006337    -4.425118
H     0.950064    -2.634915    -5.273610
H     1.962764    -1.748371     2.985537
O     2.118639    -2.679139     2.768331
H     1.433131    -2.893306     2.101104
H    -3.015998    -1.807336    -3.206066
O    -2.594749    -0.920491    -3.140278
H    -3.250555    -0.275379    -3.460579
H    -3.195485     4.898435     1.088904
O    -3.951466     5.295086     0.609604
H    -4.400486     5.787211     1.337174
H     0.871585     2.257163     2.595879
O     0.971614     2.253165     1.624642
H     1.699187     1.630791     1.459536
H     0.182547     5.662012    -0.752554
O     0.704904     6.323041    -1.260836
H     0.844856     7.124567    -0.706766
H     0.347435     7.036309     2.597625
O    -0.015022     6.653628     1.781234
H     0.648727     5.984045     1.516472
H    -2.483508     0.215649     3.345266
O    -2.704799    -0.597993     3.850806
H    -1.943718    -0.637524     4.471808
H    -0.897418     0.554633     6.030249
O    -0.622783     0.036941     5.255010
H     0.091313    -0.566481     5.540904
H     0.711345    -4.990577     1.983248
O     0.169251    -5.100646     2.787796
H     0.314767    -6.021221     3.059667
H    -2.114188    -8.086716     0.450285
O    -1.792337    -7.598481     1.235570
H    -2.579006    -7.288343     1.691719
H    -0.388283     6.868194    -2.320801
O    -1.134323     7.285950    -2.821140
H    -1.925057     7.161870    -2.258355
H    -1.122086     4.310727     0.578774
O    -0.749073     4.374196    -0.316638
H    -1.454070     4.131055    -0.950737
H    -4.414860     2.744846     3.510488
O    -4.415173     2.918512     4.474879
H    -4.496312     2.035521     4.885177
H     2.024256    -3.578215     4.247576
O     1.960595    -4.050331     5.100872
H     2.468063    -3.513809     5.731325
H     4.687856    -3.187355     0.842368
O     4.527185    -3.111531    -0.124049
H     3.667857    -2.635041    -0.207318
H    -2.724827    -0.746653    -1.347621
O    -3.052376    -0.476711    -0.473146
H    -3.853736     0.047683    -0.680521
H    -1.618968    -0.757377    -4.627375
O    -1.112192    -0.541033    -5.431216
H    -0.403072     0.056386    -5.146161
H     1.793551    -1.708956    -3.373498
O     1.884996    -0.962365    -2.749947
H     1.107192    -0.385848    -2.881195
H     3.662873    -3.116377     2.553905
O     4.622156    -3.344215     2.480867
H     4.677899    -4.304380     2.607200
H     3.428729    -6.115698     3.125848
O     3.784161    -5.914181     2.225728
H     3.046255    -5.569328     1.682871
H    -3.347990     1.612952    -4.173748
O    -4.192179     1.140877    -3.983027
H    -4.410110     1.286662    -3.026675
H    -5.093750     4.140324     0.063412
O    -5.533512     3.274411    -0.028731
H    -6.462749     3.391573    -0.317484
H     6.731978    -1.172516    -1.359285
O     5.959660    -1.023802    -0.807291
H     5.541558    -1.892040    -0.610116
H     4.593448    -3.161216    -2.467383
O     3.725304    -2.990623    -2.883084
H     3.729172    -3.609109    -3.639496
H     4.433883    -2.287924     5.625143
O     4.091103    -2.753848     6.418155
H     4.427220    -3.658476     6.336474
H    -0.722852     6.301439     5.055769
O    -1.338926     6.873824     5.584145
H    -1.321834     7.756744     5.140812
H     4.695433    -0.128729    -1.462648
O     3.927348     0.412969    -1.724876
H     3.235624    -0.188154    -2.055554
H    -0.749867     4.528171    -4.032547
O    -1.534044     5.069157    -4.239484
H    -1.383660     5.936805    -3.817905
H     0.653676     3.208219    -2.653683
O     0.660868     3.585175    -3.561847
H     0.708328     2.822157    -4.147875
H    -5.382198    -5.195162     1.797321
O    -4.684964    -5.789124     1.441980
H    -3.844798    -5.372542     1.712665
H     7.879260    -1.679678    -4.030713
O     7.621178    -1.366806    -3.130971
H     7.133657    -0.523303    -3.287398
H     3.701792    -5.064717    -5.287595
O     4.463960    -4.690793    -4.806453
H     4.849129    -5.401689    -4.261001
H    -3.787493     0.019044     4.938887
O    -4.388808     0.483233     5.571162
H    -5.048036    -0.175930     5.863229
H     3.466062    -5.936140    -0.517099
O     4.338605    -5.688221    -0.834813
H     4.414103    -4.725845    -0.691173
H     4.997210    -0.327542    -4.157023
O     4.462410    -1.039303    -4.546876
H     4.136968    -1.623085    -3.829121
H    -1.177266     1.575441    -3.932718
O    -1.828470     2.195838    -4.317217
H    -1.471895     2.528358    -5.163708
H     4.886782    -6.314409    -2.312874
O     5.219760    -6.638883    -3.178625
H     6.038174    -7.119210    -2.992157
H     8.740916    -5.080983    -2.916227
O     8.050008    -5.499420    -2.357912
H     8.085497    -6.456689    -2.460218
H     2.331406     4.725437     0.454806
O     1.753753     4.705149     1.227252
H     1.396399     3.784737     1.304173
H    -4.416518    -2.635581     4.235357
O    -5.310745    -2.296227     4.033619
H    -5.174440    -1.515368     3.457698
H    -5.846897    -3.197302     1.321291
O    -6.309013    -3.754798     1.989734
H    -6.121016    -3.319374     2.840316
H     1.680890     3.472241     6.867051
O     1.056968     3.987384     6.333854
H     0.274087     4.138973     6.905686
H     4.999475    -2.162656     3.619430
O     5.019165    -1.444417     4.283682
H     4.206956    -0.888911     4.126961
H     2.391740    -5.572288     4.841387
O     2.772714    -6.455609     4.581232
H     2.028344    -7.037917     4.406902
H     2.256591    -4.509771    -6.787539
O     2.088022    -4.998326    -5.971889
H     1.822796    -4.307421    -5.316397
H     6.439643    -4.094661    -0.501062
O     7.193171    -4.497071    -0.037744
H     7.700851    -4.919330    -0.758562
H    -1.733352     4.491875     7.705094
O    -0.835153     4.590348     8.090713
H    -0.654252     5.549605     8.115883
H    -5.128183     5.694212    -5.589176
O    -4.519955     4.930819    -5.610582
H    -3.763192     5.146661    -6.176651
H     3.278868    -2.520153    -8.433876
O     3.191804    -3.052771    -7.632453
H     4.068525    -3.027845    -7.203873
H    -0.679170     8.833966    -2.270163
O    -0.558721     9.660377    -1.747895
H     0.206485     9.486671    -1.175166
H     2.064033    -0.908356     5.215066
O     1.491039    -1.434017     5.802503
H     1.585896    -1.089538     6.699886
H     5.203048    -2.015787    -5.690177
O     5.549911    -2.781729    -6.212196
H     5.276774    -3.571956    -5.694717
H     5.696401    -5.207533     4.688658
O     5.174067    -5.122898     5.515351
H     4.453419    -5.755906     5.430014
H    -3.978398     1.146570     7.011064
O    -3.786425     1.624343     7.853936
H    -4.663168     2.007203     8.116031
H    -1.841239     9.675501    -0.769562
O    -2.660017     9.499937    -0.237800
H    -3.223432     10.270260    -0.353458
H    -5.955929     4.689272    -2.934519
O    -6.865441     4.567062    -3.275408
H    -6.774831     3.866531    -3.954279
H     0.096665    -7.060921    -1.140324
O     0.561399    -7.496279    -0.392593
H    -0.117582    -7.692073     0.256176
H    -7.644763     3.788837    -1.968700
O    -7.904202     3.201263    -1.227939
H    -7.762353     2.292720    -1.568731
H     3.971024    -0.886442     6.990079
O     3.978509     0.077743     6.980808
H     4.790672     0.368364     6.549380
H     2.249396     5.802207    -1.175496
O     3.185011     5.509269    -1.060513
H     3.362244     4.970246    -1.854359
H     6.551886    -5.921137     0.674367
O     6.183982    -6.657771     1.208145
H     5.279213    -6.381489     1.434984
H    -3.876808     4.726162     7.790489
O    -3.313662     4.268742     7.124288
H    -3.501970     3.323958     7.233482
H     5.765262    -7.937741     0.140316
O     5.477851    -8.625173    -0.497042
H     4.648384    -8.300335    -0.891225
H    -0.562146     2.044287     7.697161
O    -1.195925     1.981002     6.962386
H    -2.063687     1.836555     7.359397
H    -6.387775    -0.123554     1.067839
O    -6.706962    -0.206489     0.154671
H    -7.625300    -0.478808     0.171216
H    -5.373178    -3.064771    -0.583426
O    -5.121908    -2.362017     0.042206
H    -5.692638    -1.589867    -0.146116
H     4.309349     5.584831     0.323835
O     4.642880     5.685161     1.229252
H     3.948465     6.195876     1.681189
H    -9.046827    -1.748137    -2.248138
O    -8.499100    -1.546442    -1.461984
H    -8.625758    -2.283492    -0.824680
H    -5.532803     3.471532    -5.522263
O    -6.048967     2.759624    -5.107926
H    -5.381477     2.174914    -4.694924
H     3.176233    -0.881719    -5.651841
O     2.320269    -1.002619    -6.117305
H     2.406598    -1.851409    -6.590988
H     8.110583    -1.338983    -6.026461
O     8.119604    -2.202929    -5.569907
H     7.263791    -2.603708    -5.820488
H     7.614598     1.001108    -6.307283
O     7.426370     0.152504    -6.720228
H     6.445061     0.101735    -6.756494
H    -7.861550    -3.695892     0.934928
O    -8.540056    -3.589186     0.250664
H    -8.441500    -4.348448    -0.351207
H    -2.351392     8.704281     1.293591
O    -2.210426     8.067719     2.024175
H    -1.411810     7.557094     1.784174
H    -4.430291     6.373133     3.547634
O    -4.582790     6.811979     2.685873
H    -3.719760     7.239213     2.494766
H     3.392998     3.453318    -3.573624
O     3.239041     4.422371    -3.479561
H     2.274186     4.486596    -3.587744
H    -6.119189    -1.606607    -3.437324
O    -6.201276    -2.185678    -2.653055
H    -6.985777    -1.879428    -2.144682
H     6.463094     1.058226     4.743002
O     6.068243     1.596672     5.445773
H     6.255983     2.515468     5.155048
H     1.354552     1.727434    -5.818700
O     1.160969     1.131318    -5.064295
H     1.525145     0.268639    -5.334408
H    -2.495419     2.965332     10.488623
O    -2.282244     2.058074     10.214991
H    -2.879816     1.857735     9.482740
H     7.624058    -0.487906     3.086288
O     6.873421     0.086863     3.255521
H     6.181973    -0.514388     3.634880
H    -5.656847    -8.055163    -0.696216
O    -4.921719    -8.123147    -0.050014
H    -4.926210    -7.305914     0.471996
H    -5.182629    -0.118884    -4.710561
O    -5.799291    -0.831244    -4.949657
H    -6.637781    -0.390188    -5.147818
H     1.884328    -0.192757    -7.511342
O     1.682196     0.278890    -8.355177
H     2.258992    -0.125886    -9.008447
H     4.867282    -1.385162    -9.300972
O     3.941794    -1.157326    -9.582888
H     3.921536    -1.274834    -10.531972
H     7.562366    -2.561343     4.202780
O     7.708700    -2.596909     3.243210
H     7.216466    -3.388484     2.971409
H     6.721759    -5.885893     2.687540
O     6.782939    -5.210672     3.388732
H     7.659028    -5.294962     3.806336
H    -1.820987     8.963116     3.485080
O    -1.574150     9.274159     4.384857
H    -2.425668     9.370768     4.843391
H    -7.396893     1.566022    -5.245193
O    -7.970797     0.821453    -4.999166
H    -8.873012     1.220310    -4.923739
H     6.921093    -1.073201    -8.401584
O     6.339762    -1.794830    -8.665030
H     6.112536    -2.244886    -7.833018
H    -1.689870     6.244783    -7.017126
O    -2.084328     5.417636    -6.744220
H    -1.836739     5.288204    -5.780222
H    -0.004917     3.315061     9.028236
O     0.192428     2.395315     9.282624
H    -0.605373     2.130457     9.789449
H     6.753595    -2.770312    -2.702105
O     6.223902    -3.515036    -2.360886
H     6.693023    -4.325432    -2.607634
H    -4.080393    -3.071950    -4.938652
O    -4.234721    -2.959584    -5.903432
H    -4.782852    -2.167142    -5.959737
H     1.975344     2.188830     8.469736
O     2.638212     2.302200     7.778921
H     3.061927     1.432640     7.663521
H    -6.908225    -5.202989    -1.390041
O    -7.823598    -5.473354    -1.635288
H    -7.957777    -5.071074    -2.518311
H    -3.820586     5.290590     5.828150
O    -3.830439     6.072183     5.242107
H    -2.870808     6.332473     5.279175
H    -7.890169     0.085839    -1.960982
O    -7.400918     0.810023    -2.374072
H    -7.629141     0.799225    -3.327491
H     5.832806     0.138928     0.415307
O     5.610084     0.859999     1.036476
H     6.121049     0.665372     1.849086
H    -6.223464     3.309266     7.401663
O    -6.093949     2.792618     8.230573
H    -6.692451     2.029652     8.143174
H     2.279926    -8.067969    -0.838761
O     2.956891    -8.054731    -1.535013
H     2.732613    -8.769005    -2.148137
H    -2.747111    -3.959629    -6.192318
O    -1.993012    -4.525298    -5.960598
H    -1.716740    -4.233397    -5.063564
H    -5.650136     3.760060     5.315197
O    -6.301103     4.157494     5.930144
H    -6.137677     5.101399     5.919549
H    -1.017732    -7.111129    -3.158258
O    -0.545739    -6.440949    -2.630130
H     0.361558    -6.370756    -3.011370
H     4.439003     2.024878     5.132132
O     3.497026     2.263684     5.012886
H     3.113553     2.278623     5.895135
H     4.102852     4.664986     6.304680
O     4.180747     5.395995     5.687249
H     3.613715     5.154220     4.916362
H     2.757547     3.624602     3.927656
O     2.577066     4.564172     3.761641
H     2.460433     4.662329     2.794867
H     9.388618     0.222848    -1.068373
O     8.582558     0.384950    -0.574615
H     8.407599    -0.434138    -0.081609
H    -2.109234     5.324599     10.655748
O    -2.831734     4.696226     10.886318
H    -3.048674     4.871450     11.802248
H     7.971039    -2.999038     0.330550
O     8.391427    -2.151971     0.585615
H     8.325940    -2.147163     1.547941
H     5.364048     3.673845     3.528446
O     6.019643     3.939614     4.195218
H     5.607102     4.658358     4.695866
H    -4.216789     5.026259     9.789913
O    -4.850389     5.173973     9.067439
H    -5.461066     4.424292     9.067447
H    -7.013170    -3.479500    -3.479420
O    -7.633263    -4.092033    -3.927390
H    -7.112109    -4.533662    -4.629806
H     0.019793     6.135124     10.775835
O    -0.845682     6.463886     10.528207
H    -0.730960     6.896040     9.662683
H     2.582521     1.501962    -4.101580
O     3.460669     1.855379    -3.862904
H     3.781518     1.340700    -3.092470
H    -6.975528    -0.218747     7.226242
O    -7.483917     0.560255     7.505698
H    -8.109249     0.740886     6.802795
H    -2.739426    -9.871343    -0.824120
O    -2.677047    -8.929632    -0.983890
H    -3.583253    -8.563930    -0.743217
H    -10.076818     3.072610    -4.892077
O    -10.192707     2.154988    -4.611181
H    -10.408586     2.239034    -3.661509
H    -2.068917    -3.021213     4.619443
O    -2.943708    -3.461544     4.689390
H    -2.937275    -4.079660     3.933277
H    -0.175695    -7.978267     2.490759
O     0.650547    -7.766788     2.938422
H     1.369017    -8.062295     2.351618
H     6.704472    -2.365653     6.396198
O     7.154328    -3.075070     5.932537
H     6.525024    -3.810487     5.894381
H    -5.273718    -2.001460     6.949949
O    -5.949794    -1.502951     6.466114
H    -5.934266    -1.880632     5.557120
H     0.827512     3.037768    -7.110169
O     1.745283     2.707220    -7.166223
H     1.731843     1.960019    -7.792406
H    -4.230444     9.021774     6.665803
O    -4.136520     8.825416     5.729239
H    -4.195867     7.847797     5.676010
H    -2.084739     10.317849    -2.718458
O    -2.979774     10.490486    -3.042523
H    -2.899071     11.134962    -3.744854
H     9.410278    -4.049493     4.047193
O     9.130988    -4.727616     4.669972
H     8.701573    -4.255365     5.394224
H    -0.735884    -5.993681    -5.835425
O    -0.031947    -6.559524    -5.501755
H     0.803175    -6.097544    -5.719925
H     1.815766     8.281376     0.668069
O     1.510615     8.602082    -0.208921
H     2.324165     8.642154    -0.740839
H     3.489799     2.936731    -6.658843
O     4.317757     2.647138    -6.249796
H     4.072991     2.373486    -5.340803
H     3.722701     7.132299    -1.226850
O     3.928028     8.068162    -1.439781
H     4.296245     8.012914    -2.333556
H     4.388621     0.000005    -7.908250
O     4.765786     0.146716    -7.038933
H     4.583394     1.078584    -6.795559
H     6.024481     1.942076    -0.472252
O     6.589301     2.135769    -1.234224
H     7.414362     1.656762    -1.040725
H     6.685777    -8.422214    -1.603055
O     7.321232    -8.211064    -2.339883
H     7.688375    -9.045031    -2.628018
H    -5.302659    -5.788174    -5.401130
O    -5.920510    -5.116623    -5.715511
H    -5.370064    -4.348094    -5.952856
H     0.673495     7.180187     7.603534
O    -0.228093     7.205915     7.963295
H    -0.784499     7.224195     7.147510
H    -8.901063    -2.836073    -4.095026
O    -9.421738    -2.027840    -3.926968
H    -9.137035    -1.362913    -4.557672
H    -2.410425    -5.985639    -2.137796
O    -3.288895    -5.699955    -2.406019
H    -3.476113    -6.074798    -3.291739
H    -2.987983    -5.897791    -5.403517
O    -3.587129    -6.507920    -4.930767
H    -3.104605    -7.327912    -4.764491
H    -1.399242     3.730800    -6.977387
O    -0.859024     2.974745    -6.706799
H    -1.095938     2.189938    -7.256997
H    -0.211216     0.421594    -8.211414
O    -1.107365     0.656027    -7.927734
H    -1.281887     0.132427    -7.129716
H    -10.431871     4.049851    -2.727736
O    -10.497902     3.271166    -2.159322
H    -9.668833     3.246574    -1.650254
H     4.572842     4.088870     1.723550
O     4.365487     3.167953     2.003299
H     5.081163     2.592241     1.721062
H     6.478701     1.407575    -4.216889
O     6.176459     0.783332    -3.522607
H     6.207266     1.279058    -2.678992
H     9.629917    -2.214188    -0.927230
O     9.906100    -1.999442    -1.827057
H     9.105290    -1.661555    -2.270316
H     9.966620    -3.308897    -3.096382
O     9.699730    -3.961255    -3.771058
H     9.305554    -3.454075    -4.491367
H    -7.696729    -8.575930    -1.658963
O    -6.959466    -7.980800    -1.786965
H    -7.338046    -7.068175    -1.777245
H     4.149814     6.089253    -3.818138
O     4.810458     6.790813    -3.732489
H     5.647175     6.337443    -3.596355
H     0.098170    -8.165971    -5.210277
O     0.122791    -9.148838    -5.078253
H     0.273228    -9.512658    -5.950804
H    -2.331131    -8.670854    -2.709806
O    -2.097847    -8.406730    -3.619383
H    -1.450981    -9.024716    -3.978546
H     2.186689    -10.810271    -3.490891
O     2.139609    -9.855782    -3.466374
H     1.353925    -9.585689    -3.992540
H     6.827090     3.340536    -4.572383
O     6.885471     2.662015    -5.272888
H     6.091854     2.794526    -5.813557
H    -3.564510    -3.719230     7.726999
O    -3.678840    -2.931371     7.197020
H    -3.427924    -3.170540     6.278578
H    -0.641661    -3.358335    -6.719459
O    -0.011846    -2.626546    -6.726883
H    -0.494124    -1.851270    -6.385577
H     0.638676     0.467204     8.757962
O     0.646345    -0.246521     8.116261
H    -0.275434    -0.537008     8.029493
H    -5.843989     7.369347    -4.249517
O    -6.348005     6.748441    -4.808081
H    -6.635077     6.020359    -4.214311
H    -4.296021     9.107294    -3.256228
O    -4.823106     8.303683    -3.161048
H    -4.420785     7.831419    -2.414948
H    -9.722709     5.794565    -4.637506
O    -10.255213     4.988902    -4.474928
H    -11.136140     5.189921    -4.792755
H     2.759579     6.523906     6.144068
O     1.799263     6.619508     6.241764
H     1.457003     5.705608     6.139734
H     4.791501     8.556925     0.086338
O     5.108740     8.557467     1.007418
H     5.518030     7.694164     1.137354
H     4.142992    -7.418185    -4.338588
O     3.384889    -7.703571    -4.880540
H     3.105552    -8.544825    -4.504365
H     0.372512     8.668665     4.237107
O     1.045460     8.019278     4.009939
H     1.272702     7.528535     4.825745
H     5.226167     4.200528    -3.155171
O     6.187664     4.171235    -3.102622
H     6.397281     3.590111    -2.354777
H    -2.578921    -1.540822     7.578753
O    -2.070163    -0.746198     7.797689
H    -2.696592    -0.121870     8.173839
H    -9.039878     7.936614    -4.140283
O    -8.977258     7.348999    -4.894818
H    -8.020047     7.187721    -5.032077
H     3.533150    -8.972151     1.094763
O     2.856147    -8.340909     1.344068
H     3.330277    -7.535196     1.623655
H     3.574845     8.179676     1.830540
O     2.785303     7.615143     1.945861
H     2.340540     7.852196     2.772203
N    -5.199244     9.642360     2.891657
H    -5.261787     8.675836     2.824925
H    -5.014205     9.769052     3.829499
