30
Coordinates from ORCA-job grain_mol_opt.QMRegion
  H   -3.55985013569984      6.37759378479769     -0.48661417552471
  O   -3.37149124171563      7.03851891308014     -1.20857619486319
  H   -3.18049340698230      7.89850421892770     -0.76470519576906
  H   0.19879527588539      5.67203184451876     -0.71295077038069
  O   0.69273528238118      6.35323818834338     -1.23181114947353
  H   0.87585891541205      7.11355412908288     -0.63401982934375
  H   -0.42427914370140      6.96025601061641     -2.28203314232174
  O   -1.18531027229948      7.37848346195977     -2.76397403207906
  H   -1.94638632713120      7.17277537489968     -2.16215989501554
  H   -0.64297679128285      4.56078627788262     -4.04306945092743
  O   -1.42713584140593      5.09656286676791     -4.27904556433096
  H   -1.32012793860616      5.93498456510796     -3.79291845837108
  H   -0.48461034141929      8.97470987729521     -1.95507440046561
  O   -0.31276036622714      9.80394506999113     -1.47073316956339
  H   0.42633199488242      9.55948118766173     -0.87943326687599
  H   -1.80287725785718      9.69894214520728     -0.62277718255715
  O   -2.71181981280358      9.49867236224961     -0.29331529698403
  H   -3.29481109762893     10.10052407333828     -0.78221658693714
  H   -1.73142808120473      6.14133915638402     -7.21457704014647
  O   -2.11610986453461      5.38278355183313     -6.77513438331226
  H   -1.74590858537286      5.35556408872429     -5.84402872588627
  H   -3.26104849484371     10.39189489350916     -3.14310854801418
  O   -4.03167712681227     10.61013690352280     -2.56109997063276
  H   -4.27392965923348     11.51418331505520     -2.77786661822674
  H   -5.19008847015649      9.07047418212591     -2.75550815207825
  O   -5.57514162281884      8.18616348619609     -2.67835764110328
  H   -4.97246527109497      7.71102825220053     -2.08313667687887
  O   -1.82172761307974      9.94610687472371     -4.03049786294588
  H   -1.12272912421412     10.43001083616170     -3.57351086971679
  H   -1.61882731988093      9.02106339672328     -3.80450485817492
