12
Coordinates from ORCA-job grain_mol_opt.QMRegion
  H   8.70021895219184     -5.13031939479852     -2.89309728932596
  O   8.00066402742052     -5.53494200461700     -2.36008229397874
  H   8.06020739475357     -6.49943401548863     -2.40472734867144
  H   6.62424859933605     -8.49856088819648     -1.54626281549154
  O   7.26818096924784     -8.21170000223099     -2.25083489020244
  H   7.55987161194220     -9.01525989796557     -2.68327751230287
  H   9.94194473333191     -3.22904659718467     -3.21610037475705
  O   9.66996235004043     -3.88134392705447     -3.89305425960327
  H   9.23957609374873     -3.36569028836902     -4.59466221451612
  O   10.46419593277917     -6.65270171681130     -4.10702670396922
  H   10.43559232752293     -5.68786638824002     -4.21021216771036
  H   11.39984370632167     -6.85637491150724     -4.03194541447010
