603

H     0.192171     3.014156    -0.688116
O     0.718481     2.348044    -1.180625
H     1.656063     2.478977    -0.903401
H    -0.085764    -1.332732     3.132256
O     0.304918    -0.630462     2.589536
H    -0.174730     0.181516     2.823809
H    -2.406078     2.385906    -0.556513
O    -2.198272     1.914195     0.267545
H    -2.208059     0.966940     0.040541
H    -4.675574     0.510911     2.150163
O    -4.991264    -0.423413     2.157381
H    -4.477026    -0.897498     1.495721
H     0.058680    -0.329449     0.934620
O    -0.137834    -0.090851     0.007944
H     0.201676     0.806135    -0.109979
H    -0.160486    -3.604560     3.753842
O    -0.443601    -2.776096     4.174906
H     0.199602    -2.605158     4.879351
H    -4.900692     2.495496     1.301116
O    -4.263275     2.084549     1.917078
H    -3.418044     2.071182     1.408052
H    -3.254506     3.874774    -2.232330
O    -2.516883     3.278406    -1.999861
H    -2.153658     2.994316    -2.858788
H    -0.118759    -3.825634     0.479383
O     0.216965    -3.007326     0.899205
H    -0.572612    -2.524186     1.209910
H    -2.384144    -1.568978     2.441765
O    -2.193863    -2.033293     1.600085
H    -2.447476    -1.443635     0.871073
H     2.078202    -1.454421    -1.133089
O     2.307043    -1.708092    -0.215198
H     1.518008    -2.139263     0.164825
H    -1.404399     1.798329     1.894359
O    -1.500645     1.398081     2.768693
H    -1.489151     2.108555     3.435828
H     0.218912    -2.718648    -1.591224
O    -0.538877    -2.109531    -1.646362
H    -0.363020    -1.383518    -1.010957
H    -3.427771    -2.952277    -0.423699
O    -2.711545    -3.442448    -0.847858
H    -1.999875    -2.811079    -1.060068
H     2.758806     0.111633     2.927188
O     2.854360    -0.072913     3.888842
H     2.942219     0.819202     4.295992
H    -3.548601     6.352613    -0.558968
O    -3.309713     7.017041    -1.257097
H    -3.171752     7.861750    -0.784827
H     3.892982     0.573384     1.184679
O     2.942454     0.388755     1.296690
H     2.709764    -0.363210     0.714931
H    -5.780884     0.812751    -1.641403
O    -4.871652     1.140816    -1.509528
H    -4.986151     1.968557    -0.997396
H    -1.238184     5.370315     2.200056
O    -1.860541     4.621454     2.079811
H    -1.939802     4.200993     2.941331
H     3.481116     2.752925     0.426757
O     3.235951     2.711071    -0.513223
H     3.572819     1.870460    -0.864403
H     1.509914    -4.707407    -2.271656
O     1.569271    -3.930496    -1.697392
H     2.364369    -3.466832    -2.044144
H    -0.914882    -0.101264    -2.567436
O    -0.282409     0.554043    -2.888836
H    -0.025280     1.135688    -2.150113
H     1.710032    -4.699624    -0.199619
O     1.815784    -5.337490     0.542338
H     1.356256    -6.149780     0.243022
H    -1.208530    -3.282420    -2.906941
O    -1.033822    -3.963786    -3.569405
H    -0.904563    -4.811722    -3.102561
H    -2.809683     3.272614     4.685178
O    -1.828454     3.271971     4.654196
H    -1.537317     2.869646     5.490817
H     0.929884     5.010011     4.073054
O    -0.017127     5.239071     4.122279
H    -0.487285     4.433927     4.377210
H    -1.719890    -4.674639    -0.403448
O    -0.953773    -5.212403    -0.116654
H    -1.300684    -5.903655     0.457088
H    -3.928373     5.807730    -2.616578
O    -4.275556     4.973409    -2.949685
H    -4.116706     4.941337    -3.917349
H    -2.428526    -3.718854     1.903873
O    -2.447663    -4.623264     2.278633
H    -1.507957    -4.861547     2.420260
H    -4.679441    -3.006805    -2.937625
O    -3.826266    -3.236187    -3.342704
H    -3.492572    -4.029335    -2.878118
H     0.315787     1.349105     4.602662
O     0.819869     2.111625     4.271656
H     0.865451     2.769006     4.980261
H    -4.573234    -5.182055    -1.596930
O    -5.317651    -4.888428    -1.034192
H    -5.034435    -5.184615    -0.142506
H     2.355817    -6.486179    -4.061163
O     2.014398    -6.160007    -3.208315
H     2.448095    -6.734119    -2.544710
H     0.487141    -3.388638    -4.027980
O     1.290125    -3.017970    -4.447037
H     0.973263    -2.645754    -5.296170
H     1.955605    -1.772601     2.968388
O     2.113713    -2.702649     2.749676
H     1.430939    -2.916811     2.079805
H    -3.000997    -1.829663    -3.241430
O    -2.582638    -0.942086    -3.171972
H    -3.238124    -0.297378    -3.493638
H    -3.211668     4.945556     1.062229
O    -3.993324     5.316988     0.605916
H    -4.412126     5.872744     1.311759
H     0.857333     2.231672     2.582065
O     0.961003     2.228794     1.611131
H     1.690960     1.608718     1.448202
H     0.173750     5.640330    -0.762391
O     0.694887     6.304636    -1.268395
H     0.833193     7.103783    -0.710613
H     0.310491     7.012675     2.589933
O    -0.047871     6.632598     1.770671
H     0.619248     5.964786     1.510027
H    -2.495327     0.182793     3.316007
O    -2.717321    -0.633307     3.817673
H    -1.958975    -0.672158     4.442382
H    -0.920359     0.519524     6.006364
O    -0.642848     0.002217     5.231699
H     0.072018    -0.599359     5.519469
H     0.713259    -5.015731     1.955530
O     0.167754    -5.128304     2.757397
H     0.314429    -6.049084     3.028264
H    -2.101626    -8.114695     0.406615
O    -1.780769    -7.624914     1.190650
H    -2.569096    -7.323056     1.649349
H    -0.394218     6.848821    -2.329312
O    -1.140292     7.267366    -2.830345
H    -1.931670     7.137885    -2.269492
H    -1.131109     4.286487     0.562289
O    -0.755527     4.350121    -0.332524
H    -1.459352     4.107824    -0.967715
H    -4.432780     2.708707     3.480456
O    -4.435614     2.877052     4.445273
H    -4.517434     1.993062     4.852493
H     2.016038    -3.604768     4.227054
O     1.949903    -4.078715     5.079085
H     2.454025    -3.542543     5.712538
H     4.690697    -3.202632     0.831953
O     4.533262    -3.125188    -0.134938
H     3.673341    -2.650276    -0.220216
H    -2.719003    -0.772107    -1.379275
O    -3.052593    -0.506703    -0.505746
H    -3.851202     0.020860    -0.715309
H    -1.600932    -0.774231    -4.654931
O    -1.092869    -0.555244    -5.457122
H    -0.385293     0.042659    -5.168958
H     1.808228    -1.721864    -3.391346
O     1.895658    -0.976161    -2.766179
H     1.117562    -0.400701    -2.899421
H     3.659631    -3.136694     2.539950
O     4.619522    -3.362592     2.469528
H     4.676644    -4.322880     2.594500
H     3.429212    -6.137628     3.105479
O     3.787419    -5.933395     2.207007
H     3.050614    -5.589259     1.662294
H    -3.337039     1.590891    -4.203789
O    -4.181368     1.117302    -4.016388
H    -4.402082     1.261744    -3.060445
H    -5.097066     4.114180     0.041217
O    -5.533633     3.247345    -0.065852
H    -6.463129     3.365786    -0.350631
H     6.738666    -1.179791    -1.358632
O     5.963730    -1.033471    -0.809679
H     5.546861    -1.902913    -0.615141
H     4.607536    -3.170297    -2.478053
O     3.740568    -3.000621    -2.896670
H     3.748574    -3.617951    -3.654023
H     4.418196    -2.312678     5.615342
O     4.073399    -2.780884     6.406087
H     4.411705    -3.684656     6.323985
H    -0.793042     6.306208     5.068813
O    -1.393411     6.879097     5.605936
H    -1.407635     7.757138     5.166393
H     4.700519    -0.139450    -1.467395
O     3.932295     0.401139    -1.731707
H     3.242932    -0.200932    -2.065374
H    -0.745004     4.510995    -4.047394
O    -1.528837     5.051951    -4.256640
H    -1.381066     5.918362    -3.832157
H     0.656209     3.192068    -2.666083
O     0.664903     3.570486    -3.573855
H     0.717129     2.808415    -4.160731
H    -5.287771    -5.169902     1.824550
O    -4.608030    -5.786491     1.473563
H    -3.765376    -5.353891     1.735970
H     7.896196    -1.679667    -4.027181
O     7.634281    -1.368971    -3.127820
H     7.145717    -0.526140    -3.284297
H     3.729826    -5.070825    -5.304877
O     4.489239    -4.695794    -4.820375
H     4.874246    -5.406838    -4.274876
H    -3.804734    -0.021588     4.905046
O    -4.409975     0.439390     5.535553
H    -5.068359    -0.221496     5.824965
H     3.478932    -5.951359    -0.536729
O     4.351781    -5.700822    -0.851507
H     4.425077    -4.738688    -0.705310
H     5.011954    -0.332958    -4.161028
O     4.479528    -1.044734    -4.554124
H     4.153173    -1.630816    -3.838614
H    -1.167541     1.557936    -3.954383
O    -1.818977     2.176824    -4.341251
H    -1.459129     2.511693    -5.185425
H     4.906564    -6.323343    -2.328649
O     5.243380    -6.645141    -3.193896
H     6.061836    -7.124655    -3.005404
H     8.760421    -5.081535    -2.916048
O     8.068189    -5.502152    -2.361065
H     8.105885    -6.459207    -2.464803
H     2.319727     4.705991     0.452331
O     1.737622     4.684778     1.221281
H     1.382737     3.763341     1.295931
H    -4.427733    -2.675945     4.192894
O    -5.321514    -2.337142     3.986858
H    -5.182636    -1.552520     3.416620
H    -5.781245    -3.160092     1.283990
O    -6.286923    -3.691891     1.949222
H    -6.075170    -3.247189     2.797607
H     1.649472     3.440105     6.858376
O     1.026724     3.954697     6.323344
H     0.241614     4.104820     6.892818
H     4.990644    -2.182286     3.611808
O     5.006653    -1.465248     4.277402
H     4.193827    -0.911061     4.119081
H     2.385055    -5.599496     4.818327
O     2.768687    -6.481420     4.557496
H     2.026108    -7.065040     4.379912
H     2.288988    -4.514984    -6.809137
O     2.117896    -5.005503    -5.995201
H     1.849650    -4.316615    -5.339029
H     6.448724    -4.104029    -0.507105
O     7.201543    -4.505651    -0.042007
H     7.712489    -4.925734    -0.761788
H    -1.767985     4.450843     7.687226
O    -0.870709     4.550541     8.075756
H    -0.692457     5.510159     8.102910
H    -5.119666     5.671739    -5.619387
O    -4.510198     4.909688    -5.639059
H    -3.751492     5.127301    -6.201949
H     3.313026    -2.520580    -8.448087
O     3.223765    -3.054475    -7.647757
H     4.099035    -3.029237    -7.216124
H    -0.680761     8.810918    -2.279993
O    -0.562130     9.638558    -1.758924
H     0.198816     9.465329    -1.180050
H     2.046969    -0.936668     5.199877
O     1.472819    -1.464807     5.783911
H     1.563448    -1.121871     6.682374
H     5.226272    -2.017878    -5.696645
O     5.576160    -2.782156    -6.219032
H     5.303066    -3.573910    -5.703814
H     5.689624    -5.228094     4.677736
O     5.164210    -5.145914     5.502701
H     4.445149    -5.780238     5.413830
H    -4.005670     1.102329     6.978822
O    -3.817763     1.576879     7.824099
H    -4.695688     1.959738     8.082894
H    -1.879839     9.592216    -0.749976
O    -2.741590     9.462172    -0.278840
H    -3.353091     10.090062    -0.667171
H    -5.955486     4.660629    -2.966780
O    -6.862983     4.538646    -3.313210
H    -6.768291     3.838507    -3.991928
H     0.113501    -7.081173    -1.174094
O     0.576927    -7.516233    -0.425623
H    -0.103910    -7.716043     0.220046
H    -7.645491     3.756363    -2.008471
O    -7.907947     3.166376    -1.271005
H    -7.760475     2.259464    -1.612947
H     3.947950    -0.914881     6.981292
O     3.953578     0.049319     6.973675
H     4.766738     0.342372     6.545830
H     2.241826     5.785723    -1.177644
O     3.177709     5.495330    -1.060703
H     3.358666     4.957439    -1.854431
H     6.560413    -5.932440     0.665322
O     6.192013    -6.670786     1.196313
H     5.285990    -6.396656     1.420729
H    -3.912410     4.684305     7.760187
O    -3.342612     4.224352     7.101838
H    -3.533294     3.280171     7.210356
H     5.779499    -7.949588     0.124589
O     5.495807    -8.636120    -0.515368
H     4.666860    -8.312411    -0.911526
H    -0.593469     2.006256     7.678395
O    -1.224230     1.941087     6.941168
H    -2.093457     1.796300     7.334884
H    -6.387169    -0.158421     1.021519
O    -6.706186    -0.248628     0.108520
H    -7.627961    -0.507916     0.126570
H    -5.366185    -3.099982    -0.633686
O    -5.120606    -2.400531    -0.003093
H    -5.687575    -1.624905    -0.190868
H     4.296575     5.570111     0.328721
O     4.626975     5.669848     1.235297
H     3.929609     6.177463     1.686146
H    -9.043789    -1.762581    -2.394293
O    -8.534083    -1.541690    -1.584818
H    -8.661102    -2.252517    -0.921897
H    -5.520859     3.447869    -5.556359
O    -6.037002     2.734362    -5.144834
H    -5.369561     2.150714    -4.730134
H     3.197219    -0.887618    -5.663154
O     2.343077    -1.009298    -6.131889
H     2.433154    -1.856938    -6.607046
H     8.133727    -1.334810    -6.021639
O     8.142757    -2.199543    -5.566629
H     7.288693    -2.601628    -5.820913
H     7.634354     1.004826    -6.299579
O     7.449096     0.156787    -6.715016
H     6.468058     0.104085    -6.754557
H    -7.908385    -3.582840     0.926064
O    -8.613884    -3.563272     0.253604
H    -8.349019    -4.232050    -0.409032
H    -2.440636     8.709172     1.284860
O    -2.290928     8.119396     2.037156
H    -1.518218     7.569162     1.816084
H    -4.477981     6.398226     3.477618
O    -4.646661     6.824826     2.621083
H    -3.884747     7.413620     2.485120
H     3.398443     3.443803    -3.576303
O     3.241951     4.412404    -3.481496
H     2.277335     4.474670    -3.592395
H    -6.103447    -1.635533    -3.482294
O    -6.193200    -2.216733    -2.699656
H    -6.975825    -1.904634    -2.193799
H     6.444312     1.039321     4.746332
O     6.046157     1.575651     5.448823
H     6.232775     2.495402     5.160344
H     1.371132     1.718016    -5.831660
O     1.175301     1.120008    -5.079383
H     1.543080     0.258782    -5.349413
H    -2.537252     2.917896     10.464613
O    -2.321677     2.011437     10.190101
H    -2.916513     1.811592     9.455503
H     7.613717    -0.501901     3.091038
O     6.861421     0.071283     3.258288
H     6.169765    -0.531752     3.634492
H    -5.655514    -8.244516    -0.449952
O    -4.847867    -8.277328     0.111930
H    -4.802267    -7.411515     0.545463
H    -5.166792    -0.143165    -4.748159
O    -5.782284    -0.856455    -4.988147
H    -6.619853    -0.415827    -5.191422
H     1.910636    -0.197809    -7.525944
O     1.710110     0.275048    -8.369541
H     2.290151    -0.127096    -9.021602
H     4.901910    -1.380950    -9.307378
O     3.977029    -1.154081    -9.592207
H     3.960330    -1.270570    -10.541493
H     7.552235    -2.577211     4.203326
O     7.701947    -2.610750     3.244191
H     7.212218    -3.402833     2.969336
H     6.723314    -5.900675     2.679111
O     6.780792    -5.226442     3.381544
H     7.655488    -5.309957     3.802239
H    -1.862275     8.917543     3.491195
O    -1.618393     9.221075     4.390940
H    -2.469022     9.350568     4.843841
H    -7.381951     1.538515    -5.289088
O    -7.955687     0.792729    -5.046176
H    -8.858763     1.190498    -4.973211
H     6.952132    -1.066949    -8.400275
O     6.372745    -1.788897    -8.667105
H     6.143743    -2.241227    -7.836813
H    -1.676053     6.231047    -7.033315
O    -2.072583     5.404360    -6.762054
H    -1.826573     5.272733    -5.797934
H    -0.043242     3.275450     9.012964
O     0.155286     2.355631     9.266646
H    -0.643804     2.088412     9.770261
H     6.767934    -2.775062    -2.704566
O     6.238214    -3.521366    -2.366924
H     6.709963    -4.330455    -2.613051
H    -4.057471    -3.092773    -4.980202
O    -4.210799    -2.979559    -5.944980
H    -4.758110    -2.186706    -6.001940
H     1.941110     2.154627     8.459462
O     2.606583     2.270113     7.771471
H     3.031822     1.401338     7.656071
H    -6.899279    -5.300041    -1.497784
O    -7.850668    -5.454121    -1.726362
H    -7.943467    -5.018171    -2.604731
H    -3.865392     5.216992     5.678014
O    -3.833073     5.986185     5.088173
H    -2.900351     6.283460     5.186002
H    -7.885108     0.055230    -2.009676
O    -7.392834     0.778158    -2.420872
H    -7.618911     0.769384    -3.374894
H     5.830794     0.126531     0.415010
O     5.604565     0.846190     1.036515
H     6.112855     0.651039     1.850727
H    -6.254050     3.262622     7.365169
O    -6.127223     2.743146     8.193202
H    -6.725234     1.980490     8.102052
H     2.298147    -8.084845    -0.866695
O     2.977058    -8.068491    -1.560999
H     2.756590    -8.782396    -2.176004
H    -2.718231    -3.975656    -6.230435
O    -1.965366    -4.541601    -5.996065
H    -1.691436    -4.250252    -5.098067
H    -5.676595     3.718426     5.281184
O    -6.329509     4.111645     5.896420
H    -6.167867     5.056075     5.886503
H    -0.994177    -7.130143    -3.195035
O    -0.525918    -6.458230    -2.665575
H     0.383101    -6.387207    -3.042656
H     4.416866     2.000711     5.131002
O     3.474900     2.237640     5.008278
H     3.087887     2.251192     5.889034
H     4.070878     4.638338     6.307149
O     4.151593     5.369861     5.690681
H     3.587115     5.129207     4.917575
H     2.737052     3.599407     3.922547
O     2.557063     4.539234     3.757611
H     2.440717     4.639255     2.790988
H     9.391577     0.220132    -1.055937
O     8.583197     0.379774    -0.565181
H     8.408232    -0.440338    -0.073859
H    -2.155958     5.277573     10.637505
O    -2.877069     4.646634     10.865192
H    -3.098919     4.821549     11.779985
H     7.975225    -3.006932     0.331896
O     8.392951    -2.159435     0.589915
H     8.324221    -2.156606     1.552038
H     5.343879     3.654824     3.533427
O     5.997248     3.920786     4.202185
H     5.581133     4.636839     4.703918
H    -4.260074     4.975957     9.764052
O    -4.891153     5.125953     9.040034
H    -5.501020     4.375749     9.034826
H    -6.994932    -3.506918    -3.532700
O    -7.610222    -4.126005    -3.979218
H    -7.086917    -4.561958    -4.684101
H    -0.030065     6.091743     10.766230
O    -0.894830     6.420836     10.516530
H    -0.777350     6.853535     9.651529
H     2.593604     1.491591    -4.110200
O     3.470078     1.846570    -3.868190
H     3.789614     1.331148    -3.097568
H    -7.001029    -0.268421     7.180279
O    -7.512516     0.508329     7.459918
H    -8.134068     0.691411     6.754334
H    -2.714859    -9.898962    -0.879016
O    -2.654992    -8.957742    -1.042823
H    -3.552723    -8.593556    -0.779752
H    -10.066115     3.038613    -4.943346
O    -10.181037     2.120761    -4.662931
H    -10.400335     2.204503    -3.713879
H    -2.080453    -3.055602     4.585846
O    -2.955251    -3.496952     4.650486
H    -2.942416    -4.115853     3.895056
H    -0.169701    -8.006492     2.454475
O     0.654580    -7.792757     2.904689
H     1.375619    -8.086776     2.320333
H     6.686355    -2.387358     6.394126
O     7.139083    -3.095013     5.930565
H     6.511357    -3.831598     5.889053
H    -5.294672    -2.047985     6.906743
O    -5.970886    -1.551507     6.420846
H    -5.950346    -1.927394     5.511661
H     0.846171     3.029769    -7.122804
O     1.764709     2.701245    -7.176180
H     1.755135     1.954935    -7.803566
H    -4.005577     8.716915     6.659159
O    -4.000792     8.716041     5.701799
H    -4.122598     7.788545     5.432422
H    -2.083882     10.295633    -2.741942
O    -2.985110     10.474857    -3.046420
H    -2.913093     11.110692    -3.757620
H     9.403454    -4.061483     4.051579
O     9.123315    -4.741403     4.672008
H     8.690422    -4.271455     5.395691
H    -0.704028    -6.006337    -5.871108
O    -0.000630    -6.571311    -5.535103
H     0.834711    -6.108001    -5.749471
H     1.795906     8.261217     0.668853
O     1.494355     8.583452    -0.209192
H     2.310611     8.624833    -0.737014
H     3.507127     2.933283    -6.661916
O     4.334168     2.644551    -6.250525
H     4.086885     2.368546    -5.342914
H     3.712925     7.119265    -1.221304
O     3.916616     8.055914    -1.432578
H     4.288981     8.002348    -2.324754
H     4.415981     0.000582    -7.913908
O     4.789403     0.146299    -7.042819
H     4.604751     1.077414    -6.798441
H     6.022001     1.931913    -0.468471
O     6.588970     2.127989    -1.228273
H     7.414320     1.650294    -1.032686
H     6.707122    -8.428845    -1.616561
O     7.344703    -8.215051    -2.350819
H     7.714413    -9.047812    -2.639185
H    -5.270102    -5.810880    -5.455919
O    -5.891562    -5.138559    -5.761385
H    -5.343385    -4.368650    -6.000180
H     0.633182     7.144392     7.599929
O    -0.269607     7.168664     7.956535
H    -0.822534     7.183478     7.137359
H    -8.882269    -2.869342    -4.153781
O    -9.402949    -2.062283    -3.981531
H    -9.121540    -1.394715    -4.610943
H    -2.394592    -6.008124    -2.175099
O    -3.271739    -5.723201    -2.448931
H    -3.450659    -6.096182    -3.337403
H    -2.959413    -5.916434    -5.444749
O    -3.559235    -6.528388    -4.974753
H    -3.074606    -7.347715    -4.809211
H    -1.383257     3.717799    -6.996990
O    -0.842253     2.962850    -6.725290
H    -1.074796     2.178219    -7.277771
H    -0.183618     0.414149    -8.232404
O    -1.081242     0.646221    -7.951273
H    -1.257167     0.120746    -7.154816
H    -10.431106     4.012010    -2.777071
O    -10.496854     3.231613    -2.211057
H    -9.669162     3.208248    -1.699339
H     4.558524     4.071851     1.726347
O     4.351516     3.149733     2.002086
H     5.070103     2.576339     1.722578
H     6.490447     1.405233    -4.212366
O     6.186582     0.779170    -3.520490
H     6.213788     1.273146    -2.675686
H     9.636994    -2.216623    -0.918523
O     9.915890    -1.999579    -1.816968
H     9.115978    -1.662452    -2.262366
H     9.983393    -3.306589    -3.088524
O     9.720102    -3.958128    -3.765395
H     9.327536    -3.450342    -4.486135
H    -7.848554    -8.128216    -0.503157
O    -7.203474    -8.249049    -1.220603
H    -7.350729    -7.445780    -1.745078
H     4.151368     6.081239    -3.813039
O     4.810110     6.784223    -3.724445
H     5.647236     6.332480    -3.585306
H     0.131893    -8.178834    -5.246113
O     0.157375    -9.161653    -5.115491
H     0.311429    -9.524313    -5.987886
H    -2.307054    -8.692188    -2.757339
O    -2.070526    -8.424122    -3.665508
H    -1.422380    -9.041365    -4.023698
H     2.219124    -10.822043    -3.523011
O     2.171126    -9.867560    -3.498827
H     1.385917    -9.598549    -4.026142
H     6.836408     3.339469    -4.562955
O     6.898535     2.662533    -5.264669
H     6.106555     2.794537    -5.807808
H    -3.584679    -3.762776     7.686973
O    -3.700005    -2.974944     7.157153
H    -3.444098    -3.212101     6.239654
H    -0.611905    -3.369765    -6.749191
O     0.015965    -2.636413    -6.752916
H    -0.468973    -1.862832    -6.411645
H     0.607073     0.429683     8.739407
O     0.618353    -0.283668     8.097292
H    -0.302743    -0.575093     8.006541
H    -5.845357     7.343151    -4.273778
O    -6.344883     6.723627    -4.837176
H    -6.632008     5.991496    -4.247819
H    -4.298437     9.080379    -3.277664
O    -4.832060     8.282442    -3.174302
H    -4.424599     7.803134    -2.434756
H    -9.718141     5.761243    -4.682612
O    -10.249768     4.954689    -4.522491
H    -11.129751     5.153975    -4.844044
H     2.725844     6.494974     6.144460
O     1.765146     6.588616     6.239268
H     1.424512     5.674488     6.134308
H     4.774784     8.542865     0.098295
O     5.088960     8.542881     1.020326
H     5.498254     7.679664     1.150986
H     4.171954    -7.424798    -4.358840
O     3.416024    -7.709979    -4.903926
H     3.137097    -8.552839    -4.530984
H     0.334699     8.636161     4.234615
O     1.014558     7.993500     4.007359
H     1.240138     7.500098     4.821951
H     5.228824     4.193559    -3.149653
O     6.190167     4.166187    -3.093913
H     6.398420     3.584021    -2.346450
H    -2.603543    -1.582575     7.546157
O    -2.096211    -0.788021     7.768193
H    -2.724373    -0.164489     8.142928
H    -9.041612     7.903245    -4.178100
O    -8.974571     7.318672    -4.934558
H    -8.016610     7.158553    -5.067842
H     3.545681    -8.990400     1.069871
O     2.866947    -8.360166     1.316956
H     3.338904    -7.554538     1.600299
H     3.550793     8.161162     1.838843
O     2.761398     7.595362     1.947712
H     2.312083     7.828444     2.772909
N    -9.240420    -6.989140     0.379081
H    -9.205413    -6.455691     1.179760
H    -9.103756    -6.343255    -0.330236
