30
Coordinates from ORCA-job grain_mol_opt.QMRegion
  H   4.33626163843327     -2.37466876052238      5.67426854882066
  O   4.00816668486687     -2.93021883708024      6.41361572332432
  H   4.41981737608952     -3.79717864011350      6.23595508568298
  H   4.92111854131672     -2.16963978043685      3.58425671960277
  O   4.94868381097409     -1.45416850299402      4.25320632312228
  H   4.12196857414163     -0.91321022926253      4.09152584664441
  H   3.60006293646727     -1.17314424584255      7.49190718024235
  O   3.80259846100033     -0.22983183777757      7.43331470873421
  H   4.76893098019366     -0.21959351211745      7.32574712791189
  H   6.73235949308954      1.16027038379059      4.44345491655159
  O   6.39791947752728      1.67479750336595      5.21122973849663
  H   6.48492435767154      2.61560384817166      4.92361860708307
  H   7.47735852794707     -0.68768003107992      2.91469341555042
  O   6.84316573235923     -0.00372026027698      3.17099669792855
  H   6.10237203840512     -0.54842781111501      3.55849526488059
  H   7.66119319272002     -2.64140245091221      4.13340454871702
  O   7.82907351425638     -2.69377638771424      3.17076829830550
  H   7.30917029130051     -3.47643321489053      2.91534267239340
  H   1.87789508249038      2.25126697221784      8.51060500640710
  O   2.62782858514889      2.24459591976408      7.89544517084938
  H   2.89585636849458      1.30618165587197      7.83989476962951
  H   4.53123391159634      1.98069193885027      5.11797569960575
  O   3.59481191957475      2.23011388885112      5.03574250760676
  H   3.20611485537750      2.14766344843522      5.91702101128301
  H   7.05366915239312     -2.08460227831420      6.28688951382685
  O   7.35486225918868     -2.93270355704088      5.91465601082316
  H   6.60108128046719     -3.53052039843484      5.98373273812932
  O   6.64910253954015     -0.30914983285044      7.02043431306248
  H   7.18572139398272     -0.10969095651235      7.79268999716311
  H   6.70027591304618      0.49546283760644      6.45006374039013
